<?xml version="1.0" encoding="UTF-8"?>

<!-- generated on 2025-10-05 22:56:28.259272 by randomTrips.py UNKNOWN
<configuration>
    <net-file value="scenarios/from_osm/osm.net.xml"/>
    <output-trip-file value="scenarios/from_osm/emergency.trips.xml"/>
    <route-file value="scenarios/from_osm/emergency.rou.xml"/>
    <vtype-output value="emergency"/>
    <prefix value="em"/>
    <end value="15.0"/>
    <period value="600.0"/>
</configuration>
-->

<!-- generated on 2025-10-05 22:56:28 by Eclipse SUMO duarouter Version 1.24.0
<duarouterConfiguration xmlns:xsi="http://www.w3.org/2001/XMLSchema-instance" xsi:noNamespaceSchemaLocation="http://sumo.dlr.de/xsd/duarouterConfiguration.xsd">

    <input>
        <net-file value="scenarios/from_osm/osm.net.xml"/>
        <route-files value="scenarios/from_osm/emergency.trips.xml"/>
    </input>

    <output>
        <output-file value="scenarios/from_osm/emergency.rou.xml"/>
        <vtype-output value="emergency"/>
        <alternatives-output value="NUL"/>
    </output>

    <time>
        <begin value="0"/>
        <end value="15.0"/>
    </time>

    <report>
        <no-warnings value="true"/>
        <ignore-errors value="true"/>
        <no-step-log value="true"/>
    </report>

</duarouterConfiguration>
-->

<routes xmlns:xsi="http://www.w3.org/2001/XMLSchema-instance" xsi:noNamespaceSchemaLocation="http://sumo.dlr.de/xsd/routes_file.xsd">
    <vehicle id="em0" depart="0.00">
        <route edges="173075699#0 -173075577 -173075581#1 -173075581#0 -332465801#38 -332465801#37 -332465801#36 -332465801#35 -332465801#34 -332465801#33 -332465801#32 -332465801#31 -332465801#30 -332465801#29 -332465801#28 -332465801#27 -332465801#26 -332465801#25 -332465801#24 -332465801#23 -332465801#22 -332465801#21 -332465801#20 -332465801#19 -332465801#18 -332465801#17 -332465801#16 -332465801#15 -332465801#14 -332465801#13 173157406#0 173157406#1 173157406#2 173157406#3 173157406#4 173157406#5 173157406#6 173157406#7 173157406#8 173157406#9 652483193#0 652483193#1 652483193#2 652483193#3 652483193#4 652483193#5 652483193#6 652483193#7 652483193#8 652483193#9 652483193#10 780502930 173159365#1 173159365#2 173159365#3 1163037322#2 1163037323 387316777#0 387316777#1 387316777#2 387316777#3 387316777#4 387316777#5 387316777#6 387316777#7 387316777#8 387316751#0 387316751#1 387316751#2 387316751#3 387316751#4 387316751#5 1426337579#0 1426337579#1 1426337579#2 387316797#0 387316797#1 387316797#2 387316797#3 387316797#4 1426337578#0 1426337578#1 470655994#0 470655994#1 470655994#2 470655994#3 1001201950#0 1001201950#1 1001201950#2 1001201950#3 470655979#0 470655979#1 -156238379#1 -156239235#5 -156239235#4"/>
    </vehicle>
</routes>
