<additional><vType id="emergency" vClass="emergency" guiShape="emergency" color="1,0,0" speedFactor="2.0"><param key="has.bluelight.device" value="true"/></vType></additional>