<?xml version="1.0" encoding="UTF-8"?>

<!-- generated on 2025-09-11 00:24:16.712686 by osmWebWizard.py UNKNOWN
<configuration>
    <net-file value="/home/pereira/2025-09-11-00-22-14/osm.net.xml.gz"/>
    <output-trip-file value="/home/pereira/2025-09-11-00-22-14/osm.passenger.trips.xml"/>
    <route-file value="/home/pereira/2025-09-11-00-22-14/osm.passenger.rou.xml"/>
    <prefix value="veh"/>
    <trip-attributes value="departLane=&quot;best&quot;"/>
    <fringe-start-attributes value="departSpeed=&quot;max&quot;"/>
    <vehicle-class value="passenger"/>
    <lanes value="True"/>
    <fringe-factor value="5"/>
    <allow-fringe.min-length value="1000.0"/>
    <edge-permission value="passenger"/>
    <via-edge-types value="highway.motorway,highway.motorway_link,highway.trunk_link,highway.primary_link,highway.secondary_link,highway.tertiary_link"/>
    <seed value="44"/>
    <min-distance value="300.0"/>
    <min-distance.fringe value="10.0"/>
    <remove-loops value="True"/>
    <insertion-density value="12.0"/>
</configuration>
-->

<routes xmlns:xsi="http://www.w3.org/2001/XMLSchema-instance" xsi:noNamespaceSchemaLocation="http://sumo.dlr.de/xsd/routes_file.xsd">
    <vType id="veh_passenger" vClass="passenger"/>
    <trip id="veh0" depart="0.00" from="-657707371" to="160056781#3" departLane="best" type="veh_passenger" departSpeed="max"/>
    <trip id="veh1" depart="0.52" from="520721251#0" to="-173082266#2" departLane="best" type="veh_passenger"/>
    <trip id="veh2" depart="1.05" from="-173157363#1" to="-158257407" departLane="best" type="veh_passenger"/>
    <trip id="veh3" depart="1.57" from="-160289221" to="-1426337578#0" departLane="best" type="veh_passenger" departSpeed="max"/>
    <trip id="veh4" depart="2.09" from="-173075686#0" to="159598305#1" departLane="best" type="veh_passenger"/>
    <trip id="veh5" depart="2.62" from="944822959" to="173157285#1" departLane="best" type="veh_passenger" departSpeed="max"/>
    <trip id="veh6" depart="3.14" from="-544163216#3" to="-650281378#0" departLane="best" type="veh_passenger"/>
    <trip id="veh7" depart="3.67" from="173157317" to="-226640219#0" departLane="best" type="veh_passenger"/>
    <trip id="veh8" depart="4.19" from="-159929400#2" to="520721245#1" departLane="best" type="veh_passenger"/>
    <trip id="veh9" depart="4.71" from="173075550" to="-160289196" departLane="best" type="veh_passenger" departSpeed="max"/>
    <trip id="veh10" depart="5.24" from="-159758967#1" to="-160056875#1" departLane="best" type="veh_passenger" departSpeed="max"/>
    <trip id="veh11" depart="5.76" from="867681834" to="-160287939#0" departLane="best" type="veh_passenger"/>
    <trip id="veh12" depart="6.28" from="173075647#5" to="932642483" departLane="best" type="veh_passenger"/>
    <trip id="veh13" depart="6.81" from="-158257437" to="-544154870#1" departLane="best" type="veh_passenger" departSpeed="max"/>
    <trip id="veh14" depart="7.33" from="156238676#2" to="644488893#4" departLane="best" type="veh_passenger"/>
    <trip id="veh15" depart="7.86" from="-173082274#3" to="-173163535#0" departLane="best" type="veh_passenger"/>
    <trip id="veh16" depart="8.38" from="-173159451#2" to="-159598291" departLane="best" type="veh_passenger"/>
    <trip id="veh17" depart="8.90" from="173085075#5" to="385949114" departLane="best" type="veh_passenger"/>
    <trip id="veh18" depart="9.43" from="-971835549" to="-158262260#1" departLane="best" type="veh_passenger"/>
    <trip id="veh19" depart="9.95" from="173157406#7" to="173163400#2" departLane="best" type="veh_passenger"/>
    <trip id="veh20" depart="10.47" from="173082225" to="-313850655#3" departLane="best" type="veh_passenger"/>
    <trip id="veh21" depart="11.00" from="332465801#13" to="173075651#10" departLane="best" type="veh_passenger"/>
    <trip id="veh22" depart="11.52" from="160289228#0" to="160056777" departLane="best" type="veh_passenger" departSpeed="max"/>
    <trip id="veh23" depart="12.04" from="-173157405#2" to="1410776028#0" departLane="best" type="veh_passenger"/>
    <trip id="veh24" depart="12.57" from="197046403" to="173102100" departLane="best" type="veh_passenger"/>
    <trip id="veh25" depart="13.09" from="-521024477" to="385949145#1" departLane="best" type="veh_passenger"/>
    <trip id="veh26" depart="13.62" from="385949126#0" to="-158280259#0" departLane="best" type="veh_passenger"/>
    <trip id="veh27" depart="14.14" from="-173075692" to="-173157390#0" departLane="best" type="veh_passenger" departSpeed="max"/>
    <trip id="veh28" depart="14.66" from="-152906312#0" to="173869738#1" departLane="best" type="veh_passenger"/>
    <trip id="veh29" depart="15.19" from="173082176#0" to="160056786#0" departLane="best" type="veh_passenger"/>
    <trip id="veh30" depart="15.71" from="952480276" to="-520721265#2" departLane="best" type="veh_passenger" departSpeed="max"/>
    <trip id="veh31" depart="16.23" from="-173085070#2" to="-160289189" departLane="best" type="veh_passenger"/>
    <trip id="veh32" depart="16.76" from="163335438#3" to="-159607485#4" departLane="best" type="veh_passenger"/>
    <trip id="veh33" depart="17.28" from="-966725763#1" to="-159598282" departLane="best" type="veh_passenger" departSpeed="max"/>
    <trip id="veh34" depart="17.81" from="173075610" to="-163291394#3" departLane="best" type="veh_passenger" departSpeed="max"/>
    <trip id="veh35" depart="18.33" from="-173082210" to="173075830#0" departLane="best" type="veh_passenger" departSpeed="max"/>
    <trip id="veh36" depart="18.85" from="348768792#2" to="173075571" departLane="best" type="veh_passenger"/>
    <trip id="veh37" depart="19.38" from="-196932511" to="173075850#0" departLane="best" type="veh_passenger"/>
    <trip id="veh38" depart="19.90" from="-182105830#1" to="-134667407#9" departLane="best" type="veh_passenger"/>
    <trip id="veh39" depart="20.42" from="-182105840" to="173102121#0" departLane="best" type="veh_passenger" departSpeed="max"/>
    <trip id="veh40" depart="20.95" from="173075651#15" to="-173102102" departLane="best" type="veh_passenger"/>
    <trip id="veh41" depart="21.47" from="387316714#1" to="470655988#0" departLane="best" type="veh_passenger"/>
    <trip id="veh42" depart="21.99" from="-185218772#1" to="924566625" departLane="best" type="veh_passenger" departSpeed="max"/>
    <trip id="veh43" depart="22.52" from="-173163551#5" to="-159758952" departLane="best" type="veh_passenger"/>
    <trip id="veh44" depart="23.04" from="159598292#0" to="537562693#16" departLane="best" type="veh_passenger"/>
    <trip id="veh45" depart="23.57" from="163291394#3" to="160056793#3" departLane="best" type="veh_passenger"/>
    <trip id="veh46" depart="24.09" from="158257411#0" to="-185218784" departLane="best" type="veh_passenger"/>
    <trip id="veh47" depart="24.61" from="-208937196#3" to="-601848588#1" departLane="best" type="veh_passenger"/>
    <trip id="veh48" depart="25.14" from="160056797" to="695757829#2" departLane="best" type="veh_passenger" departSpeed="max"/>
    <trip id="veh49" depart="25.66" from="-159929398#3" to="-173163409" departLane="best" type="veh_passenger"/>
    <trip id="veh50" depart="26.18" from="657337389#3" to="173082193" departLane="best" type="veh_passenger"/>
    <trip id="veh51" depart="26.71" from="-160056769#1" to="1163037322#2" departLane="best" type="veh_passenger"/>
    <trip id="veh52" depart="27.23" from="173082213#2" to="599505132#3" departLane="best" type="veh_passenger"/>
    <trip id="veh53" depart="27.76" from="-160056815" to="547462757" departLane="best" type="veh_passenger"/>
    <trip id="veh54" depart="28.28" from="185218773#1" to="-185204954#0" departLane="best" type="veh_passenger"/>
    <trip id="veh55" depart="28.80" from="159758968#0" to="387316797#0" departLane="best" type="veh_passenger"/>
    <trip id="veh56" depart="29.33" from="-173159424#2" to="173157329#8" departLane="best" type="veh_passenger"/>
    <trip id="veh57" depart="29.85" from="160056869#0" to="-160056774#0" departLane="best" type="veh_passenger" departSpeed="max"/>
    <trip id="veh58" depart="30.37" from="-182105829" to="-657337389#2" departLane="best" type="veh_passenger"/>
    <trip id="veh59" depart="30.90" from="-173075549#6" to="719473885#3" departLane="best" type="veh_passenger" departSpeed="max"/>
    <trip id="veh60" depart="31.42" from="-173163399#2" to="-173159355#3" departLane="best" type="veh_passenger"/>
    <trip id="veh61" depart="31.95" from="163291391#3" to="159758947#6" departLane="best" type="veh_passenger"/>
    <trip id="veh62" depart="32.47" from="-385949107" to="-217677876#0" departLane="best" type="veh_passenger" departSpeed="max"/>
    <trip id="veh63" depart="32.99" from="158262247#4" to="548731031#0" departLane="best" type="veh_passenger"/>
    <trip id="veh64" depart="33.52" from="-160056785#4" to="599505132#4" departLane="best" type="veh_passenger"/>
    <trip id="veh65" depart="34.04" from="654290512#5" to="173102098" departLane="best" type="veh_passenger"/>
    <trip id="veh66" depart="34.56" from="208865761#0" to="-544131197#2" departLane="best" type="veh_passenger" departSpeed="max"/>
    <trip id="veh67" depart="35.09" from="921519115" to="173163457" departLane="best" type="veh_passenger" departSpeed="max"/>
    <trip id="veh68" depart="35.61" from="173157291#0" to="1356302820#0" departLane="best" type="veh_passenger"/>
    <trip id="veh69" depart="36.13" from="-173157346#1" to="173102132#1" departLane="best" type="veh_passenger"/>
    <trip id="veh70" depart="36.66" from="173159455#0" to="-1236600670" departLane="best" type="veh_passenger" departSpeed="max"/>
    <trip id="veh71" depart="37.18" from="-320788136#10" to="159929391" departLane="best" type="veh_passenger"/>
    <trip id="veh72" depart="37.71" from="-173157286" to="-163335438#4" departLane="best" type="veh_passenger"/>
    <trip id="veh73" depart="38.23" from="-173082273#1" to="-152906304#3" departLane="best" type="veh_passenger"/>
    <trip id="veh74" depart="38.75" from="-160289254#1" to="-546230123#0" departLane="best" type="veh_passenger" departSpeed="max"/>
    <trip id="veh75" depart="39.28" from="158280247#0" to="173075760#0" departLane="best" type="veh_passenger"/>
    <trip id="veh76" depart="39.80" from="-315961620#1" to="-163335433#11" departLane="best" type="veh_passenger"/>
    <trip id="veh77" depart="40.32" from="596223922" to="173075652#11" departLane="best" type="veh_passenger" departSpeed="max"/>
    <trip id="veh78" depart="40.85" from="173102115#1" to="173102125#1" departLane="best" type="veh_passenger"/>
    <trip id="veh79" depart="41.37" from="-385949114" to="160289254#1" departLane="best" type="veh_passenger" departSpeed="max"/>
    <trip id="veh80" depart="41.90" from="-385949107" to="173075893#1" departLane="best" type="veh_passenger" departSpeed="max"/>
    <trip id="veh81" depart="42.42" from="217676884" to="-152906308#2" departLane="best" type="veh_passenger" departSpeed="max"/>
    <trip id="veh82" depart="42.94" from="197203899#0" to="-160289250#0" departLane="best" type="veh_passenger"/>
    <trip id="veh83" depart="43.47" from="-152906319#1" to="-160056781#3" departLane="best" type="veh_passenger"/>
    <trip id="veh84" depart="43.99" from="160060807" to="533828798" departLane="best" type="veh_passenger" departSpeed="max"/>
    <trip id="veh85" depart="44.51" from="644488893#0" to="-173075849#0" departLane="best" type="veh_passenger" departSpeed="max"/>
    <trip id="veh86" depart="45.04" from="538811343#6" to="404964680" departLane="best" type="veh_passenger"/>
    <trip id="veh87" depart="45.56" from="-173159453" to="-182105847#0" departLane="best" type="veh_passenger"/>
    <trip id="veh88" depart="46.08" from="-173075624#1" to="-173163570#1" departLane="best" type="veh_passenger"/>
    <trip id="veh89" depart="46.61" from="-656303110" to="313850655#2" departLane="best" type="veh_passenger"/>
    <trip id="veh90" depart="47.13" from="173082267#1" to="-173082229" departLane="best" type="veh_passenger"/>
    <trip id="veh91" depart="47.66" from="-173082193" to="1388273716" departLane="best" type="veh_passenger" departSpeed="max"/>
    <trip id="veh92" depart="48.18" from="539081997#1" to="157161074#2" departLane="best" type="veh_passenger"/>
    <trip id="veh93" depart="48.70" from="196885601#4" to="173102124" departLane="best" type="veh_passenger"/>
    <trip id="veh94" depart="49.23" from="535822399#1" to="158262252#2" departLane="best" type="veh_passenger"/>
    <trip id="veh95" depart="49.75" from="-544163214" to="1426337574#1" departLane="best" type="veh_passenger"/>
    <trip id="veh96" depart="50.27" from="208865754" to="-185204954#0" departLane="best" type="veh_passenger" departSpeed="max"/>
    <trip id="veh97" depart="50.80" from="-173082288#4" to="480069800" departLane="best" type="veh_passenger" departSpeed="max"/>
    <trip id="veh98" depart="51.32" from="157161270#0" to="173075802" departLane="best" type="veh_passenger"/>
    <trip id="veh99" depart="51.85" from="-173075896#1" to="-158280247#0" departLane="best" type="veh_passenger"/>
    <trip id="veh100" depart="52.37" from="-173157363#0" to="-932924806#6" departLane="best" type="veh_passenger"/>
    <trip id="veh101" depart="52.89" from="-158257428#7" to="-182105830#4" departLane="best" type="veh_passenger"/>
    <trip id="veh102" depart="53.42" from="656303108#3" to="-971835553" departLane="best" type="veh_passenger"/>
    <trip id="veh103" depart="53.94" from="-127569065#0" to="320788136#8" departLane="best" type="veh_passenger"/>
    <trip id="veh104" depart="54.46" from="-210485981#0" to="-173082234" departLane="best" type="veh_passenger"/>
    <trip id="veh105" depart="54.99" from="173075849#1" to="173082246#1" departLane="best" type="veh_passenger"/>
    <trip id="veh106" depart="55.51" from="-385949130" to="173157370#0" departLane="best" type="veh_passenger" departSpeed="max"/>
    <trip id="veh107" depart="56.03" from="533830425" to="-334682518" departLane="best" type="veh_passenger"/>
    <trip id="veh108" depart="56.56" from="158262252#3" to="-1300063415" departLane="best" type="veh_passenger"/>
    <trip id="veh109" depart="57.08" from="160289231#1" to="-187566918" departLane="best" type="veh_passenger"/>
    <trip id="veh110" depart="57.61" from="173082217#1" to="182105822#4" departLane="best" type="veh_passenger"/>
    <trip id="veh111" depart="58.13" from="-520721259#1" to="173082266#0" departLane="best" type="veh_passenger"/>
    <trip id="veh112" depart="58.65" from="656303108#0" to="-173082204" departLane="best" type="veh_passenger"/>
    <trip id="veh113" depart="59.18" from="197203904" to="157940058#0" departLane="best" type="veh_passenger" departSpeed="max"/>
    <trip id="veh114" depart="59.70" from="657337395" to="-160056774#0" departLane="best" type="veh_passenger" departSpeed="max"/>
    <trip id="veh115" depart="60.22" from="-546230122" to="-173075868#0" departLane="best" type="veh_passenger"/>
    <trip id="veh116" depart="60.75" from="-173163510#1" to="544154873#0" departLane="best" type="veh_passenger"/>
    <trip id="veh117" depart="61.27" from="159758954" to="-520721277#2" departLane="best" type="veh_passenger"/>
    <trip id="veh118" depart="61.80" from="921519115" to="-159598306#1" departLane="best" type="veh_passenger" departSpeed="max"/>
    <trip id="veh119" depart="62.32" from="-157160631#1" to="185218783#0" departLane="best" type="veh_passenger"/>
    <trip id="veh120" depart="62.84" from="160056860#0" to="479908535" departLane="best" type="veh_passenger"/>
    <trip id="veh121" depart="63.37" from="158262247#1" to="720036802#2" departLane="best" type="veh_passenger"/>
    <trip id="veh122" depart="63.89" from="-479908536" to="-173157427#1" departLane="best" type="veh_passenger" departSpeed="max"/>
    <trip id="veh123" depart="64.41" from="537568167#0" to="159758967#1" departLane="best" type="veh_passenger"/>
    <trip id="veh124" depart="64.94" from="-158257411#9" to="-147416051" departLane="best" type="veh_passenger"/>
    <trip id="veh125" depart="65.46" from="-152906318#4" to="173159435#1" departLane="best" type="veh_passenger"/>
    <trip id="veh126" depart="65.98" from="173075851#0" to="-160289203#0" departLane="best" type="veh_passenger"/>
    <trip id="veh127" depart="66.51" from="197203902" to="187678118" departLane="best" type="veh_passenger" departSpeed="max"/>
    <trip id="veh128" depart="67.03" from="173075674#0" to="160287927#0" departLane="best" type="veh_passenger"/>
    <trip id="veh129" depart="67.56" from="-967742392" to="173157279#1" departLane="best" type="veh_passenger" departSpeed="max"/>
    <trip id="veh130" depart="68.08" from="-547781599#1" to="654089030#0" departLane="best" type="veh_passenger"/>
    <trip id="veh131" depart="68.60" from="160289231#0" to="173082283#2" departLane="best" type="veh_passenger" departSpeed="max"/>
    <trip id="veh132" depart="69.13" from="644488893#0" to="936758668#1" departLane="best" type="veh_passenger" departSpeed="max"/>
    <trip id="veh133" depart="69.65" from="159758965#3" to="-160289198" departLane="best" type="veh_passenger"/>
    <trip id="veh134" depart="70.17" from="159667519" to="647523016#1" departLane="best" type="veh_passenger"/>
    <trip id="veh135" depart="70.70" from="-173102128#2" to="-173163431#5" departLane="best" type="veh_passenger"/>
    <trip id="veh136" depart="71.22" from="-182105849" to="-173159359#2" departLane="best" type="veh_passenger" departSpeed="max"/>
    <trip id="veh137" depart="71.75" from="210485968#2" to="159929391" departLane="best" type="veh_passenger"/>
    <trip id="veh138" depart="72.27" from="-160056825" to="159598282" departLane="best" type="veh_passenger"/>
    <trip id="veh139" depart="72.79" from="173157337#0" to="-157940059#7" departLane="best" type="veh_passenger"/>
    <trip id="veh140" depart="73.32" from="-173085052#1" to="-152906301#12" departLane="best" type="veh_passenger"/>
    <trip id="veh141" depart="73.84" from="173157337#1" to="-548731031#1" departLane="best" type="veh_passenger"/>
    <trip id="veh142" depart="74.36" from="-152906304#3" to="-173159450#4" departLane="best" type="veh_passenger"/>
    <trip id="veh143" depart="74.89" from="-173082284#3" to="160177494" departLane="best" type="veh_passenger"/>
    <trip id="veh144" depart="75.41" from="-932924806#5" to="-868948007" departLane="best" type="veh_passenger"/>
    <trip id="veh145" depart="75.94" from="-470655943#3" to="-158280230#2" departLane="best" type="veh_passenger"/>
    <trip id="veh146" depart="76.46" from="-387316728#3" to="173075668#1" departLane="best" type="veh_passenger"/>
    <trip id="veh147" depart="76.98" from="159929400#2" to="160289210#1" departLane="best" type="veh_passenger"/>
    <trip id="veh148" depart="77.51" from="-173075713#0" to="-158280248#3" departLane="best" type="veh_passenger"/>
    <trip id="veh149" depart="78.03" from="182105834#0" to="173157390#1" departLane="best" type="veh_passenger"/>
    <trip id="veh150" depart="78.55" from="173082256#1" to="924761511" departLane="best" type="veh_passenger"/>
    <trip id="veh151" depart="79.08" from="-313850653#1" to="173159447#2" departLane="best" type="veh_passenger" departSpeed="max"/>
    <trip id="veh152" depart="79.60" from="-187678117#1" to="163291394#12" departLane="best" type="veh_passenger"/>
    <trip id="veh153" depart="80.12" from="546132097" to="1410776028#0" departLane="best" type="veh_passenger" departSpeed="max"/>
    <trip id="veh154" depart="80.65" from="158257423#4" to="-173159408" departLane="best" type="veh_passenger"/>
    <trip id="veh155" depart="81.17" from="780935700" to="173082288#4" departLane="best" type="veh_passenger"/>
    <trip id="veh156" depart="81.70" from="-385949145#1" to="-182105847#1" departLane="best" type="veh_passenger" departSpeed="max"/>
    <trip id="veh157" depart="82.22" from="-157940054" to="-160056838#0" departLane="best" type="veh_passenger" departSpeed="max"/>
    <trip id="veh158" depart="82.74" from="932924805#6" to="160056877#0" departLane="best" type="veh_passenger"/>
    <trip id="veh159" depart="83.27" from="187566907" to="-173159420#2" departLane="best" type="veh_passenger" departSpeed="max"/>
    <trip id="veh160" depart="83.79" from="387316722" to="173157358" departLane="best" type="veh_passenger"/>
    <trip id="veh161" depart="84.31" from="533828806#0" to="158257411#5" departLane="best" type="veh_passenger"/>
    <trip id="veh162" depart="84.84" from="548788523#0" to="160177491#1" departLane="best" type="veh_passenger" departSpeed="max"/>
    <trip id="veh163" depart="85.36" from="-173075586" to="548440009#1" departLane="best" type="veh_passenger"/>
    <trip id="veh164" depart="85.89" from="-210485957#4" to="652919170" departLane="best" type="veh_passenger"/>
    <trip id="veh165" depart="86.41" from="160056812" to="-548731031#1" departLane="best" type="veh_passenger" departSpeed="max"/>
    <trip id="veh166" depart="86.93" from="159607443" to="-537562693#8" departLane="best" type="veh_passenger" departSpeed="max"/>
    <trip id="veh167" depart="87.46" from="-160056781#5" to="-158280266" departLane="best" type="veh_passenger"/>
    <trip id="veh168" depart="87.98" from="-160056816#1" to="547779812" departLane="best" type="veh_passenger"/>
    <trip id="veh169" depart="88.50" from="-533140901" to="-157161074#5" departLane="best" type="veh_passenger" departSpeed="max"/>
    <trip id="veh170" depart="89.03" from="-654022533" to="173075690" departLane="best" type="veh_passenger" departSpeed="max"/>
    <trip id="veh171" depart="89.55" from="173075769" to="641708947" departLane="best" type="veh_passenger"/>
    <trip id="veh172" depart="90.07" from="-533808015#6" to="868953499#1" departLane="best" type="veh_passenger" departSpeed="max"/>
    <trip id="veh173" depart="90.60" from="-152906301#1" to="-173075850#1" departLane="best" type="veh_passenger"/>
    <trip id="veh174" depart="91.12" from="158257426#0" to="173075853#3" departLane="best" type="veh_passenger"/>
    <trip id="veh175" depart="91.65" from="-924643997#1" to="197310657#0" departLane="best" type="veh_passenger"/>
    <trip id="veh176" depart="92.17" from="160056793#0" to="-1001201950#0" departLane="best" type="veh_passenger"/>
    <trip id="veh177" depart="92.69" from="-548422576" to="173075802" departLane="best" type="veh_passenger"/>
    <trip id="veh178" depart="93.22" from="-173163478" to="-173085057#0" departLane="best" type="veh_passenger"/>
    <trip id="veh179" depart="93.74" from="173075873#0" to="151409219#0" departLane="best" type="veh_passenger"/>
    <trip id="veh180" depart="94.26" from="935471437" to="868948007" departLane="best" type="veh_passenger" departSpeed="max"/>
    <trip id="veh181" depart="94.79" from="-315961605#2" to="-158257427#1" departLane="best" type="veh_passenger"/>
    <trip id="veh182" depart="95.31" from="-173082187" to="-944331823#0" departLane="best" type="veh_passenger"/>
    <trip id="veh183" depart="95.84" from="-932651119#3" to="-936824068#0" departLane="best" type="veh_passenger"/>
    <trip id="veh184" depart="96.36" from="-160056830#1" to="-196885601#0" departLane="best" type="veh_passenger"/>
    <trip id="veh185" depart="96.88" from="-665917832" to="173869738#8" departLane="best" type="veh_passenger" departSpeed="max"/>
    <trip id="veh186" depart="97.41" from="-160289210#1" to="173075668#0" departLane="best" type="veh_passenger" departSpeed="max"/>
    <trip id="veh187" depart="97.93" from="-544163220" to="187678116#1" departLane="best" type="veh_passenger" departSpeed="max"/>
    <trip id="veh188" depart="98.45" from="173102118#3" to="-173102097" departLane="best" type="veh_passenger"/>
    <trip id="veh189" depart="98.98" from="173157372" to="-535826751" departLane="best" type="veh_passenger" departSpeed="max"/>
    <trip id="veh190" depart="99.50" from="332465801#4" to="-156239479#0" departLane="best" type="veh_passenger"/>
    <trip id="veh191" depart="100.02" from="-332465801#11" to="159603628" departLane="best" type="veh_passenger"/>
    <trip id="veh192" depart="100.55" from="-196932513#0" to="-546120059#0" departLane="best" type="veh_passenger"/>
    <trip id="veh193" depart="101.07" from="160177510#2" to="-173159403#2" departLane="best" type="veh_passenger"/>
    <trip id="veh194" depart="101.60" from="520717406#2" to="-185305104" departLane="best" type="veh_passenger"/>
    <trip id="veh195" depart="102.12" from="173157315#0" to="924522546" departLane="best" type="veh_passenger" departSpeed="max"/>
    <trip id="veh196" depart="102.64" from="-160177474#0" to="539082000#1" departLane="best" type="veh_passenger"/>
    <trip id="veh197" depart="103.17" from="-173082176#1" to="1390833002#2" departLane="best" type="veh_passenger"/>
    <trip id="veh198" depart="103.69" from="-160289231#1" to="654290512#3" departLane="best" type="veh_passenger"/>
    <trip id="veh199" depart="104.21" from="-320367321#1" to="159598310" departLane="best" type="veh_passenger"/>
    <trip id="veh200" depart="104.74" from="932628203" to="-173075651#1" departLane="best" type="veh_passenger"/>
    <trip id="veh201" depart="105.26" from="-160056783#1" to="173157289#2" departLane="best" type="veh_passenger"/>
    <trip id="veh202" depart="105.79" from="-158280249#2" to="-163294290#3" departLane="best" type="veh_passenger"/>
    <trip id="veh203" depart="106.31" from="-173163423#2" to="-151409194" departLane="best" type="veh_passenger"/>
    <trip id="veh204" depart="106.83" from="-520721277#3" to="-159607442#4" departLane="best" type="veh_passenger"/>
    <trip id="veh205" depart="107.36" from="647523023" to="159598280#2" departLane="best" type="veh_passenger"/>
    <trip id="veh206" depart="107.88" from="-158257423#3" to="173163549" departLane="best" type="veh_passenger"/>
    <trip id="veh207" depart="108.40" from="-173159359#3" to="544131190#1" departLane="best" type="veh_passenger"/>
    <trip id="veh208" depart="108.93" from="-158257442#3" to="-163291394#1" departLane="best" type="veh_passenger"/>
    <trip id="veh209" depart="109.45" from="-544131197#2" to="387316780" departLane="best" type="veh_passenger"/>
    <trip id="veh210" depart="109.97" from="652483193#6" to="932553919" departLane="best" type="veh_passenger"/>
    <trip id="veh211" depart="110.50" from="-173102119#4" to="-537562693#6" departLane="best" type="veh_passenger"/>
    <trip id="veh212" depart="111.02" from="479908534#2" to="385947794#1" departLane="best" type="veh_passenger"/>
    <trip id="veh213" depart="111.55" from="654320593#4" to="-160056801#1" departLane="best" type="veh_passenger"/>
    <trip id="veh214" depart="112.07" from="-158262247#1" to="-596223922" departLane="best" type="veh_passenger"/>
    <trip id="veh215" depart="112.59" from="387316777#0" to="173102121#0" departLane="best" type="veh_passenger"/>
    <trip id="veh216" depart="113.12" from="-869066541#0" to="173102091#0" departLane="best" type="veh_passenger"/>
    <trip id="veh217" depart="113.64" from="1191283909" to="479908553" departLane="best" type="veh_passenger" departSpeed="max"/>
    <trip id="veh218" depart="114.16" from="-187678116#0" to="173869736#3" departLane="best" type="veh_passenger"/>
    <trip id="veh219" depart="114.69" from="-173075647#5" to="160289221" departLane="best" type="veh_passenger"/>
    <trip id="veh220" depart="115.21" from="-332465801#10" to="-332465801#35" departLane="best" type="veh_passenger"/>
    <trip id="veh221" depart="115.74" from="-173869738#3" to="-158257423#2" departLane="best" type="veh_passenger"/>
    <trip id="veh222" depart="116.26" from="-160056877#3" to="173082279#2" departLane="best" type="veh_passenger"/>
    <trip id="veh223" depart="116.78" from="173082284#2" to="173082207#0" departLane="best" type="veh_passenger"/>
    <trip id="veh224" depart="117.31" from="-952473649" to="160289223#1" departLane="best" type="veh_passenger"/>
    <trip id="veh225" depart="117.83" from="197077289" to="936758668#1" departLane="best" type="veh_passenger" departSpeed="max"/>
    <trip id="veh226" depart="118.35" from="-548425665" to="173163538#2" departLane="best" type="veh_passenger" departSpeed="max"/>
    <trip id="veh227" depart="118.88" from="210485957#0" to="520721254" departLane="best" type="veh_passenger"/>
    <trip id="veh228" depart="119.40" from="173085057#1" to="-173157428" departLane="best" type="veh_passenger"/>
    <trip id="veh229" depart="119.93" from="210485959" to="160177452#3" departLane="best" type="veh_passenger"/>
    <trip id="veh230" depart="120.45" from="173163417#0" to="173163519#0" departLane="best" type="veh_passenger"/>
    <trip id="veh231" depart="120.97" from="-173102126#0" to="-159929400#1" departLane="best" type="veh_passenger"/>
    <trip id="veh232" depart="121.50" from="187566914" to="173082261#2" departLane="best" type="veh_passenger" departSpeed="max"/>
    <trip id="veh233" depart="122.02" from="-156190341#2" to="-159598275#2" departLane="best" type="veh_passenger"/>
    <trip id="veh234" depart="122.54" from="-932645049" to="173075891#1" departLane="best" type="veh_passenger"/>
    <trip id="veh235" depart="123.07" from="-163291391#6" to="173157291#0" departLane="best" type="veh_passenger"/>
    <trip id="veh236" depart="123.59" from="-520931497#1" to="173075865#4" departLane="best" type="veh_passenger" departSpeed="max"/>
    <trip id="veh237" depart="124.11" from="-182105830#5" to="-173159364" departLane="best" type="veh_passenger"/>
    <trip id="veh238" depart="124.64" from="-173075613" to="173102115#0" departLane="best" type="veh_passenger" departSpeed="max"/>
    <trip id="veh239" depart="125.16" from="173075610" to="-159929387#2" departLane="best" type="veh_passenger" departSpeed="max"/>
    <trip id="veh240" depart="125.69" from="-160289194" to="479908568" departLane="best" type="veh_passenger" departSpeed="max"/>
    <trip id="veh241" depart="126.21" from="-173163532#1" to="654290515" departLane="best" type="veh_passenger"/>