<?xml version="1.0" encoding="UTF-8"?>

<!-- generated on 2025-09-11 00:22:24 by Eclipse SUMO polyconvert Version 1.24.0
<polyconvertConfiguration xmlns:xsi="http://www.w3.org/2001/XMLSchema-instance" xsi:noNamespaceSchemaLocation="http://sumo.dlr.de/xsd/polyconvertConfiguration.xsd">

    <input>
        <net-file value="osm.net.xml.gz"/>
        <osm-files value="osm_bbox.osm.xml.gz"/>
        <osm.keep-full-type value="true"/>
        <osm.merge-relations value="1"/>
        <type-file value="${SUMO_HOME}/data/typemap/osmPolyconvert.typ.xml"/>
    </input>

    <output>
        <output-file value="osm.poly.xml.gz"/>
    </output>

    <report>
        <verbose value="true"/>
    </report>

</polyconvertConfiguration>
-->

<additional xmlns:xsi="http://www.w3.org/2001/XMLSchema-instance" xsi:noNamespaceSchemaLocation="http://sumo.dlr.de/xsd/additional_file.xsd">
    <location netOffset="-311543.61,2606969.74" convBoundary="-0.00,-0.00,5348.28,3578.33" origBoundary="-46.846058,-23.562285,-46.794036,-23.530436" projParameter="+proj=utm +zone=23 +ellps=WGS84 +datum=WGS84 +units=m +no_defs"/>

    <poly id="1056093799" type="leisure.pitch" color="207,245,201" fill="1" layer="-2.00" shape="3710.420957,1065.701799 3735.671962,1077.096938 3742.949555,1061.150336 3717.698573,1049.755209 3710.420957,1065.701799"/>
    <poly id="1056093800" type="natural.wood" color="140,196,107" fill="1" layer="-4.00" shape="3825.612481,1133.613708 3825.829358,1129.374224 3834.199431,1128.804192 3841.873163,1128.391514 3845.804356,1127.588243 3852.789721,1127.510238 3871.201705,1127.399174 3877.182760,1126.798978 3879.080989,1124.452599 3880.156359,1093.441469 3875.135464,1085.923781 3869.762712,1079.586814 3866.751713,1074.630950 3870.862877,1073.320436 3880.623624,1083.113183 3887.328121,1092.346782 3893.146357,1090.891651 3900.543280,1099.469401 3906.759245,1106.149279 3913.538502,1109.457991 3918.130110,1110.534925 3923.009462,1115.514341 3923.131760,1119.580882 3919.284867,1126.654416 3911.636843,1125.029422 3903.930988,1127.989279 3906.393670,1135.131321 3904.802322,1139.862977 3896.579698,1143.314745 3869.763388,1146.709159 3825.612481,1133.613708"/>
    <poly id="1056093806" type="natural.wood" color="140,196,107" fill="1" layer="-4.00" shape="4057.708779,1002.495590 4039.554049,985.452954 4044.801263,980.689836 4056.378708,971.110790 4068.020784,968.554914 4072.811595,967.596277 4073.032051,963.877424 4070.250125,954.516132 4069.198703,943.149690 4064.696894,934.951881 4060.108515,920.661023 4073.448066,917.096447 4074.840694,887.617855 4095.246082,918.899690 4104.249809,927.996017 4095.274497,930.419381 4100.143093,936.251477 4105.176879,942.750230 4106.991736,947.015315 4107.276892,951.936777 4107.721211,957.192533 4098.662511,958.939197 4081.624170,971.606194 4057.708779,1002.495590"/>
    <poly id="1056096385" type="amenity.school" color="237,199,199" fill="1" layer="-2.00" shape="4679.129774,599.995235 4742.226036,516.708030 4798.889838,565.900345 4728.045895,655.525770 4706.002565,639.144017 4694.989653,643.668772 4663.914036,618.833060 4679.129774,599.995235"/>
    <poly id="1056101469" type="landuse.residential" color="235,235,227" fill="1" layer="-3.00" shape="3173.213072,2604.986096 3148.607717,2488.340116 3187.300749,2480.312162 3210.350707,2598.843500 3173.213072,2604.986096"/>
    <poly id="1056101470" type="landuse.residential" color="235,235,227" fill="1" layer="-3.00" shape="3211.741841,2599.470299 3187.300749,2480.312162 3224.966700,2471.130253 3248.668134,2591.464113 3211.741841,2599.470299"/>
    <poly id="1056620861" type="landuse.residential" color="235,235,227" fill="1" layer="-3.00" shape="3307.042056,2453.283421 3298.487682,2415.881292 3405.459985,2396.377244 3405.264972,2411.804070 3398.807101,2437.153627 3307.042056,2453.283421"/>
    <poly id="1056620862" type="amenity.place_of_worship" color="237,199,199" fill="1" layer="-1.00" shape="3422.288871,2399.647031 3420.298172,2395.556865 3431.605702,2391.291421 3433.780758,2394.531040 3422.288871,2399.647031"/>
    <poly id="1056620862#1" type="building.yes" color="255,230,230" fill="1" layer="-1.00" shape="3422.288871,2399.647031 3420.298172,2395.556865 3431.605702,2391.291421 3433.780758,2394.531040 3422.288871,2399.647031"/>
    <poly id="1056620863" type="landuse.residential" color="235,235,227" fill="1" layer="-3.00" shape="3299.384450,2411.993774 3290.785599,2377.304769 3370.097495,2361.516096 3373.160548,2375.289444 3399.160099,2368.839447 3404.475366,2379.750342 3376.607735,2385.334932 3380.356995,2398.950808 3299.384450,2411.993774"/>
    <poly id="1056628209" type="building.yes" color="255,230,230" fill="1" layer="-1.00" shape="3726.945628,1888.879310 3738.594796,1851.843233 3748.816421,1857.521461 3758.864881,1860.738561 3752.797247,1879.502755 3766.191813,1883.792171 3772.226983,1865.171554 3782.748762,1869.723764 3795.110700,1872.493748 3782.455235,1911.599504 3760.080143,1904.427706 3764.968067,1889.325949 3751.319225,1884.955790 3746.583425,1896.094151 3736.051730,1894.753915 3726.945628,1888.879310"/>
    <poly id="1056628210" type="amenity.childcare" color="237,199,199" fill="1" layer="-1.00" shape="4298.761147,1597.846215 4310.899751,1595.628648 4309.678806,1583.916753 4297.889433,1585.972569 4297.859608,1588.342513 4289.484610,1590.097927 4288.499872,1587.205706 4276.361130,1589.434328 4276.669931,1592.484187 4275.132055,1592.974339 4276.161115,1598.835558 4277.400260,1598.552094 4277.313076,1600.611182 4285.306000,1599.194330 4286.489919,1605.733148 4278.798093,1606.755045 4278.947999,1609.448463 4277.890399,1609.911432 4278.256104,1615.742148 4279.428382,1615.092327 4280.006124,1617.868663 4282.911834,1617.417878 4313.646951,1612.643124 4313.961532,1610.365373 4314.437973,1609.020064 4313.803418,1602.643230 4312.252993,1600.884748 4299.765440,1603.241916 4298.761147,1597.846215"/>
    <poly id="1056628210#1" type="building.yes" color="255,230,230" fill="1" layer="-1.00" shape="4298.761147,1597.846215 4310.899751,1595.628648 4309.678806,1583.916753 4297.889433,1585.972569 4297.859608,1588.342513 4289.484610,1590.097927 4288.499872,1587.205706 4276.361130,1589.434328 4276.669931,1592.484187 4275.132055,1592.974339 4276.161115,1598.835558 4277.400260,1598.552094 4277.313076,1600.611182 4285.306000,1599.194330 4286.489919,1605.733148 4278.798093,1606.755045 4278.947999,1609.448463 4277.890399,1609.911432 4278.256104,1615.742148 4279.428382,1615.092327 4280.006124,1617.868663 4282.911834,1617.417878 4313.646951,1612.643124 4313.961532,1610.365373 4314.437973,1609.020064 4313.803418,1602.643230 4312.252993,1600.884748 4299.765440,1603.241916 4298.761147,1597.846215"/>
    <poly id="1056628211" type="amenity.school" color="237,199,199" fill="1" layer="-2.00" shape="4353.673467,1728.073978 4378.534648,1707.264293 4413.162059,1686.123271 4323.903400,1572.543207 4318.643085,1574.282446 4325.108461,1615.545333 4273.190589,1623.908057 4353.673467,1728.073978"/>
    <poly id="1056904438" type="amenity.fuel" color="237,199,199" fill="1" layer="-1.00" shape="4699.623316,1153.522305 4712.380627,1147.535210 4702.930217,1127.623276 4690.172919,1133.610362 4699.623316,1153.522305"/>
    <poly id="1056904438#1" type="building.roof" color="255,230,230" fill="1" layer="-1.00" shape="4699.623316,1153.522305 4712.380627,1147.535210 4702.930217,1127.623276 4690.172919,1133.610362 4699.623316,1153.522305"/>
    <poly id="1056904439" type="amenity.fuel" color="237,199,199" fill="1" layer="-1.00" shape="4521.076985,761.737901 4527.222515,769.967299 4542.453842,753.976387 4533.555225,746.255118 4521.076985,761.737901"/>
    <poly id="1056904439#1" type="building.roof" color="255,230,230" fill="1" layer="-1.00" shape="4521.076985,761.737901 4527.222515,769.967299 4542.453842,753.976387 4533.555225,746.255118 4521.076985,761.737901"/>
    <poly id="1056904440" type="man_made.water_tower" color="255,230,230" fill="1" layer="-1.00" shape="4825.843570,1478.854247 4823.542431,1479.955146 4821.005988,1480.277754 4818.489622,1479.814202 4816.258507,1478.589969 4814.395016,1476.550709 4813.334132,1474.023090 4813.195036,1471.274439 4813.993838,1468.648320 4815.624828,1466.431390 4817.910967,1464.898332 4820.584580,1464.223006 4823.338544,1464.468016 4825.835942,1465.629132 4827.802920,1467.558927 4828.948680,1469.832857 4829.315448,1472.340687 4828.885725,1474.849599 4827.683264,1477.094061 4825.843570,1478.854247"/>
    <poly id="1080811407" type="leisure.playground" color="207,245,201" fill="1" layer="-2.00" shape="241.022977,2482.460063 245.617818,2475.363722 259.316232,2476.658554 259.016855,2482.469864 241.022977,2482.460063"/>
    <poly id="1086872928" type="building.yes" color="255,230,230" fill="1" layer="-1.00" shape="4113.709390,2046.242879 4118.850225,2045.897803 4117.581544,2026.631275 4108.945523,2027.198158 4109.948731,2042.407431 4113.444067,2042.174547 4113.709390,2046.242879"/>
    <poly id="1144391429" type="shop.supermarket" color="237,199,255" fill="1" layer="-1.00" shape="5159.495173,1281.683008 5150.920269,1173.903696 5328.000141,1316.656062 5288.113190,1318.471721 5262.098465,1314.136448 5240.115212,1310.770934 5190.340285,1296.568146 5159.495173,1281.683008"/>
    <poly id="1144411521" type="building.yes" color="255,230,230" fill="1" layer="-1.00" shape="5188.419238,2215.658716 5218.685870,2204.319018 5213.148844,2187.369576 5182.334359,2198.425496 5188.419238,2215.658716"/>
    <poly id="1144411521#1" type="shop.hardware" color="237,199,255" fill="1" layer="-1.00" shape="5188.419238,2215.658716 5218.685870,2204.319018 5213.148844,2187.369576 5182.334359,2198.425496 5188.419238,2215.658716"/>
    <poly id="1144808897" type="amenity.food_court" color="237,199,199" fill="1" layer="-1.00" shape="5295.936891,3247.610375 5298.217247,3226.959669 5295.936891,3247.610375"/>
    <poly id="1144808898" type="building.yes" color="255,230,230" fill="1" layer="-1.00" shape="5310.400640,3279.225466"/>
    <poly id="1144808898#1" type="shop.car_repair" color="237,199,255" fill="1" layer="-1.00" shape="5310.400640,3279.225466"/>
    <poly id="1144808899" type="building.apartments" color="255,230,230" fill="1" layer="-1.00" shape="5304.131498,3286.468414 5304.804302,3280.850130 5304.131498,3286.468414"/>
    <poly id="1144812043" type="building.apartments" color="255,230,230" fill="1" layer="-1.00" shape="5310.236378,3215.601844"/>
    <poly id="1144812044" type="amenity.events_venue" color="237,199,199" fill="1" layer="-1.00" shape="5310.155154,3205.765181 5311.261457,3198.147530 5310.155154,3205.765181"/>
    <poly id="1144812044#1" type="building.yes" color="255,230,230" fill="1" layer="-1.00" shape="5310.155154,3205.765181 5311.261457,3198.147530 5310.155154,3205.765181"/>
    <poly id="1144838007" type="building.yes" color="255,230,230" fill="1" layer="-1.00" shape="5075.208016,3484.658549 5076.229522,3478.114235 5081.491348,3478.745005 5080.375726,3485.465359 5075.208016,3484.658549"/>
    <poly id="1144838007#1" type="shop.beauty" color="237,199,255" fill="1" layer="-1.00" shape="5075.208016,3484.658549 5076.229522,3478.114235 5081.491348,3478.745005 5080.375726,3485.465359 5075.208016,3484.658549"/>
    <poly id="1144961602" type="amenity.restaurant" color="237,199,199" fill="1" layer="-1.00" shape="5202.894836,2459.117540 5203.075612,2444.676445 5215.971846,2441.526094 5223.635578,2447.669623 5225.774843,2451.351543 5227.338543,2453.697116 5226.735991,2458.596328 5202.894836,2459.117540"/>
    <poly id="1144961602#1" type="building.yes" color="255,230,230" fill="1" layer="-1.00" shape="5202.894836,2459.117540 5203.075612,2444.676445 5215.971846,2441.526094 5223.635578,2447.669623 5225.774843,2451.351543 5227.338543,2453.697116 5226.735991,2458.596328 5202.894836,2459.117540"/>
    <poly id="1144962965" type="building.yes" color="255,230,230" fill="1" layer="-1.00" shape="5255.939486,1895.836941 5263.696184,1866.792552 5268.086492,1866.027867 5319.757997,1917.337060 5277.979062,1907.011784 5278.186731,1901.841798 5255.939486,1895.836941"/>
    <poly id="1144962965#1" type="shop.supermarket" color="237,199,255" fill="1" layer="-1.00" shape="5255.939486,1895.836941 5263.696184,1866.792552 5268.086492,1866.027867 5319.757997,1917.337060 5277.979062,1907.011784 5278.186731,1901.841798 5255.939486,1895.836941"/>
    <poly id="1144981510" type="natural.wood" color="140,196,107" fill="1" layer="-4.00" shape="4633.765872,1864.476495 4624.074031,1854.807044 4642.302840,1847.393399 4657.632807,1833.375119 4666.840864,1831.153671 4681.251970,1821.997374 4678.202846,1810.284733 4693.649055,1803.268061 4706.253840,1802.152559 4720.225015,1794.685367 4726.679860,1790.524207 4742.886518,1808.338868 4719.200834,1825.021388 4711.107517,1823.856459 4712.939106,1830.879634 4709.621266,1839.754346 4698.627845,1849.164032 4678.855656,1859.947693 4671.903980,1852.439320 4658.926379,1849.086391 4633.765872,1864.476495"/>
    <poly id="1144981511" type="amenity.childcare" color="237,199,199" fill="1" layer="-1.00" shape="4617.828119,1882.164430 4622.093459,1877.532759 4611.363318,1868.415145 4612.998329,1866.696714 4612.097713,1866.042979 4615.714763,1860.993345 4616.859582,1861.716605 4618.588986,1859.799987 4647.609957,1884.211006 4639.650710,1892.695126 4631.251504,1885.799900 4627.697383,1890.717413 4633.942512,1896.754869 4628.035620,1903.625478 4600.981037,1880.379976 4604.830225,1874.735143 4606.006788,1875.370193 4607.486008,1873.860254 4617.828119,1882.164430"/>
    <poly id="1144981511#1" type="building.yes" color="255,230,230" fill="1" layer="-1.00" shape="4617.828119,1882.164430 4622.093459,1877.532759 4611.363318,1868.415145 4612.998329,1866.696714 4612.097713,1866.042979 4615.714763,1860.993345 4616.859582,1861.716605 4618.588986,1859.799987 4647.609957,1884.211006 4639.650710,1892.695126 4631.251504,1885.799900 4627.697383,1890.717413 4633.942512,1896.754869 4628.035620,1903.625478 4600.981037,1880.379976 4604.830225,1874.735143 4606.006788,1875.370193 4607.486008,1873.860254 4617.828119,1882.164430"/>
    <poly id="1144990219" type="natural.wood" color="140,196,107" fill="1" layer="-4.00" shape="4593.189678,1497.564702 4595.301493,1516.409776 4604.326876,1499.454682 4606.783354,1490.868227 4612.664910,1490.067099 4616.468488,1502.675345 4639.643691,1503.841507 4638.499006,1490.103664 4637.396399,1484.396624 4646.526185,1481.886240 4647.658997,1472.995171 4651.932908,1460.355484 4650.532411,1454.788695 4646.008260,1452.394778 4637.872940,1457.841781 4632.481750,1454.561945 4619.451156,1452.205147 4615.796883,1451.284213 4620.225526,1436.896430 4627.575439,1436.257736 4638.870134,1436.986667 4639.224922,1432.316949 4639.475952,1423.713862 4629.971324,1421.113382 4617.045153,1421.826010 4609.618302,1428.588895 4597.571093,1452.805267 4591.895624,1472.150612 4589.025867,1478.682766 4595.778157,1490.663496 4593.189678,1497.564702"/>
    <poly id="1144990220" type="natural.wood" color="140,196,107" fill="1" layer="-4.00" shape="4533.837405,1596.205995 4554.496758,1598.503665 4554.003679,1579.235877 4545.068112,1566.286210 4549.523762,1550.569632 4552.408302,1531.488282 4563.571083,1501.279652 4582.148048,1465.315924 4575.016037,1464.052221 4545.524124,1489.378481 4533.594971,1479.005170 4532.913599,1472.284400 4550.459913,1439.519865 4544.068830,1428.053156 4517.916237,1463.921615 4519.967019,1485.989130 4526.611863,1493.515894 4530.316559,1502.611754 4531.373331,1511.962314 4528.037749,1519.806678 4529.375987,1530.323781 4531.436383,1541.880053 4526.796547,1548.689008 4527.454514,1566.208826 4520.438059,1587.431336 4533.837405,1596.205995"/>
    <poly id="1146509947" type="amenity.clinic" color="237,199,199" fill="1" layer="-2.00" shape="4856.907186,177.055024 4869.979611,181.682857 4876.147860,180.774500 4886.114235,167.674565 4881.010594,164.298705 4888.452802,153.814307 4856.510543,128.945902 4851.234737,138.471698 4848.458116,148.183936 4848.358426,156.124354 4851.969053,172.695445 4856.907186,177.055024"/>
    <poly id="1146509948" type="building.yes" color="255,230,230" fill="1" layer="-1.00" shape="4855.513794,275.848725 4838.148064,268.353618 4845.712839,248.112602 4852.867121,248.368562 4874.109031,251.282438 4872.647045,262.008044 4870.029671,271.234930 4857.608225,267.612138 4855.513794,275.848725"/>
    <poly id="1146732181" type="building.yes" color="255,230,230" fill="1" layer="-1.00" shape="5200.062595,2146.988065 5214.704065,2137.368932 5201.751312,2121.401033 5193.841439,2140.641045 5195.168639,2144.744780 5200.062595,2146.988065"/>
    <poly id="1146732181#1" type="shop.hardware" color="237,199,255" fill="1" layer="-1.00" shape="5200.062595,2146.988065 5214.704065,2137.368932 5201.751312,2121.401033 5193.841439,2140.641045 5195.168639,2144.744780 5200.062595,2146.988065"/>
    <poly id="1146737640" type="leisure.pitch" color="207,245,201" fill="1" layer="-2.00" shape="4790.667318,523.851358 4797.655946,515.355020 4811.816357,526.874890 4804.817523,535.371106 4790.667318,523.851358"/>
    <poly id="1146737641" type="amenity.school" color="237,199,199" fill="1" layer="-2.00" shape="4783.379553,528.522633 4852.362855,449.584373 4890.250411,479.987924 4826.834371,559.550060 4823.471911,560.615471 4817.360404,559.431120 4783.379553,528.522633"/>
    <poly id="1146737642" type="leisure.pitch" color="207,245,201" fill="1" layer="-2.00" shape="4688.709499,899.750284 4700.888625,894.254383 4690.255329,870.982535 4678.065869,876.489373 4688.709499,899.750284"/>
    <poly id="1146794254" type="building.yes" color="255,230,230" fill="1" layer="-1.00" shape="3285.774032,1221.372115 3299.275471,1229.263179 3302.713014,1223.901432 3303.875361,1224.037981 3309.825534,1214.587636 3301.466286,1209.453203 3297.583437,1209.658822 3294.592440,1210.396313 3291.445874,1212.937277 3285.774032,1221.372115"/>
    <poly id="1146794254#1" type="shop.butcher" color="237,199,255" fill="1" layer="-1.00" shape="3285.774032,1221.372115 3299.275471,1229.263179 3302.713014,1223.901432 3303.875361,1224.037981 3309.825534,1214.587636 3301.466286,1209.453203 3297.583437,1209.658822 3294.592440,1210.396313 3291.445874,1212.937277 3285.774032,1221.372115"/>
    <poly id="1146794255" type="amenity.bus_station" color="237,199,199" fill="1" layer="-1.00" shape="3246.980057,1246.511724 3250.371391,1234.315308 3252.429213,1235.504371 3249.046011,1247.058462 3246.980057,1246.511724"/>
    <poly id="1146794256" type="amenity.restaurant" color="237,199,199" fill="1" layer="-1.00" shape="3250.650632,1284.051558 3254.096078,1277.261074 3265.050272,1282.295461 3260.677836,1289.716640 3250.650632,1284.051558"/>
    <poly id="1146794256#1" type="building.yes" color="255,230,230" fill="1" layer="-1.00" shape="3250.650632,1284.051558 3254.096078,1277.261074 3265.050272,1282.295461 3260.677836,1289.716640 3250.650632,1284.051558"/>
    <poly id="1147000205" type="shop.gas" color="237,199,255" fill="1" layer="-1.00" shape="3482.417313,750.823134 3499.943322,750.490921 3504.161212,763.348476 3501.032435,772.568721 3477.889693,761.653906 3482.417313,750.823134"/>
    <poly id="1147000206" type="amenity.place_of_worship" color="237,199,199" fill="1" layer="-1.00" shape="3512.323924,796.126819 3515.414755,789.907774 3527.850921,796.422798 3525.078541,802.490802 3512.323924,796.126819"/>
    <poly id="1147000206#1" type="building.yes" color="255,230,230" fill="1" layer="-1.00" shape="3512.323924,796.126819 3515.414755,789.907774 3527.850921,796.422798 3525.078541,802.490802 3512.323924,796.126819"/>
    <poly id="1147000207" type="building.yes" color="255,230,230" fill="1" layer="-1.00" shape="3527.261458,753.394926 3531.307493,745.116683 3538.835219,741.700650 3542.738324,743.920947 3545.549705,737.997426 3551.514369,740.299161 3548.579937,768.074702 3537.463888,758.906989 3527.261458,753.394926"/>
    <poly id="1147000207#1" type="shop.butcher" color="237,199,255" fill="1" layer="-1.00" shape="3527.261458,753.394926 3531.307493,745.116683 3538.835219,741.700650 3542.738324,743.920947 3545.549705,737.997426 3551.514369,740.299161 3548.579937,768.074702 3537.463888,758.906989 3527.261458,753.394926"/>
    <poly id="1147005504" type="amenity.place_of_worship" color="237,199,199" fill="1" layer="-1.00" shape="3779.257085,496.019417 3795.508416,486.632515 3777.419949,457.140535 3765.011693,465.412930 3768.758684,471.906654 3763.563422,474.986725 3779.257085,496.019417"/>
    <poly id="1147005504#1" type="building.yes" color="255,230,230" fill="1" layer="-1.00" shape="3779.257085,496.019417 3795.508416,486.632515 3777.419949,457.140535 3765.011693,465.412930 3768.758684,471.906654 3763.563422,474.986725 3779.257085,496.019417"/>
    <poly id="1147005505" type="amenity.place_of_worship" color="237,199,199" fill="1" layer="-1.00" shape="3902.250596,458.295248 3917.695976,460.173723 3918.599182,465.468513 3921.495462,465.748733 3913.844310,478.157343 3906.341820,478.782643 3902.250596,458.295248"/>
    <poly id="1147005505#1" type="building.yes" color="255,230,230" fill="1" layer="-1.00" shape="3902.250596,458.295248 3917.695976,460.173723 3918.599182,465.468513 3921.495462,465.748733 3913.844310,478.157343 3906.341820,478.782643 3902.250596,458.295248"/>
    <poly id="1147007606" type="amenity.marketplace" color="237,199,199" fill="1" layer="-1.00" shape="4226.767805,373.687459 4235.744152,371.153291 4211.711686,302.820040 4185.691237,238.316226 4174.472779,245.385537 4202.091033,307.871466 4226.767805,373.687459"/>
    <poly id="1147035849" type="leisure.park" color="207,245,201" fill="1" layer="-2.00" shape="4715.446352,466.096548 4738.446879,487.541103 4743.408560,477.025604 4715.446352,466.096548"/>
    <poly id="1147789480" type="building.residential" color="255,230,230" fill="1" layer="-1.00" shape="3441.111009,97.262600 3440.352860,81.325242 3434.622531,81.507500 3434.730908,87.467938 3430.604751,87.559727 3430.500719,81.255977 3423.106363,81.417177 3423.062464,97.798520 3427.686612,97.890255 3427.699382,96.073898 3430.316607,95.807950 3430.737027,94.052132 3434.432176,94.132111 3435.884743,94.726458 3436.254862,96.946407 3441.111009,97.262600"/>
    <poly id="1147789481" type="building.residential" color="255,230,230" fill="1" layer="-1.00" shape="3489.733125,68.182007 3488.974928,52.244654 3483.244612,52.426930 3483.045273,55.271026 3479.498222,55.591679 3479.122809,52.175421 3471.728470,52.336645 3471.674414,68.717855 3476.308620,68.820779 3476.321525,66.993348 3478.938743,66.727392 3479.359157,64.971573 3483.054158,65.062615 3484.506863,65.645882 3484.876989,67.865830 3489.733125,68.182007"/>
    <poly id="1147789482" type="building.residential" color="255,230,230" fill="1" layer="-1.00" shape="3473.123723,77.641558 3474.027071,93.403527 3479.750416,92.966409 3480.144983,90.025096 3483.329974,90.076458 3483.874613,93.029650 3489.623681,92.980525 3489.152446,76.958192 3485.934608,76.275065 3485.993166,78.103400 3483.394963,78.480362 3483.056079,80.248288 3479.358833,80.334439 3477.884869,79.817361 3477.412516,77.607196 3473.123723,77.641558"/>
    <poly id="1147789483" type="building.residential" color="255,230,230" fill="1" layer="-1.00" shape="3514.387399,51.524878 3515.290786,67.286843 3521.003910,66.849580 3521.169410,63.451240 3525.171092,63.512921 3525.138307,66.912939 3530.887364,66.863799 3530.416088,50.841469 3527.187905,50.169297 3527.256817,51.986686 3524.658479,52.374729 3524.319602,54.142656 3520.612294,54.217614 3519.138331,53.700539 3518.676043,51.501580 3514.387399,51.524878"/>
    <poly id="1147789484" type="building.residential" color="255,230,230" fill="1" layer="-1.00" shape="3515.373301,74.487500 3516.276693,90.249463 3521.989826,89.812200 3522.155465,86.402786 3526.157154,86.464466 3526.124229,89.875558 3531.873435,89.815343 3531.402155,73.793014 3528.398545,73.932253 3528.242739,74.949305 3525.644538,75.326274 3525.295451,77.094072 3521.598206,77.180234 3520.124381,76.652085 3519.662091,74.453126 3515.373301,74.487500"/>
    <poly id="1147789485" type="building.residential" color="255,230,230" fill="1" layer="-1.00" shape="3568.561083,95.330018 3569.464536,111.091974 3575.177674,110.654689 3575.343300,107.245275 3579.344854,107.318015 3579.312082,110.718032 3585.061154,110.668869 3584.589813,94.646546 3581.361759,93.963312 3581.430538,95.791775 3578.832195,96.179828 3578.483115,97.947627 3574.786006,98.022728 3573.312037,97.505659 3572.849739,95.306702 3568.561083,95.330018"/>
    <poly id="1147789486" type="building.residential" color="255,230,230" fill="1" layer="-1.00" shape="3567.593855,70.883416 3568.497303,86.645373 3574.210571,86.197014 3574.376058,82.798675 3578.377745,82.860341 3578.344833,86.271433 3584.094036,86.211196 3583.622698,70.188873 3580.394510,69.516712 3580.463428,71.334101 3577.865090,71.722153 3577.526218,73.490081 3573.818767,73.576127 3572.344941,73.047983 3571.882644,70.849027 3567.593855,70.883416"/>
    <poly id="1147789487" type="building.residential" color="255,230,230" fill="1" layer="-1.00" shape="3567.411421,48.163565 3568.314865,63.925523 3574.038193,63.488369 3574.203820,60.078955 3578.205361,60.151695 3578.162379,63.551584 3583.911433,63.502423 3583.440099,47.480099 3580.222265,46.796992 3580.280834,48.625327 3577.682639,49.002304 3577.343768,50.770232 3573.646532,50.856406 3572.172568,50.339337 3571.710411,48.129306 3567.411421,48.163565"/>
    <poly id="1148514476" type="amenity.fuel" color="237,199,199" fill="1" layer="-1.00" shape="3032.763249,978.686269 3038.825853,971.652094 3059.646081,989.383347 3053.583480,996.417531 3032.763249,978.686269"/>
    <poly id="1148514476#1" type="building.roof" color="255,230,230" fill="1" layer="-1.00" shape="3032.763249,978.686269 3038.825853,971.652094 3059.646081,989.383347 3053.583480,996.417531 3032.763249,978.686269"/>
    <poly id="1148514477" type="amenity.school" color="237,199,199" fill="1" layer="-2.00" shape="2969.609576,1288.654771 3003.226866,1228.892047 3066.657802,1216.083073 3076.723489,1221.926000 3084.518254,1232.923875 3087.685073,1242.489647 3077.946291,1255.170510 3009.083439,1307.408938 3003.983630,1298.893052 2975.446814,1303.438153 2969.609576,1288.654771"/>
    <poly id="1148514482" type="building.warehouse" color="255,230,230" fill="1" layer="-1.00" shape="2920.728745,1844.344410 2919.284274,1756.911615 3222.052880,1741.939332 3223.393733,1797.360071 3202.449352,1796.585456 3200.175775,1814.854763 3179.208259,1815.098846 3179.073246,1825.763637 3158.607072,1827.542571 3158.510603,1835.161862 3138.567812,1835.928374 3135.867370,1847.579705 3116.441509,1847.843222 3117.353117,1856.494303 3071.826285,1859.982705 3070.863220,1855.395981 3050.386769,1857.174638 3050.991236,1850.569725 3007.534771,1851.038163 3008.658773,1842.922376 2984.612719,1845.154143 2986.214954,1839.591975 2920.728745,1844.344410"/>
    <poly id="1148571618" type="amenity.place_of_worship" color="237,199,199" fill="1" layer="-1.00" shape="3304.847777,560.666723 3299.032444,548.996189 3306.856926,544.720080 3311.677030,553.542472 3311.634696,556.886990 3304.847777,560.666723"/>
    <poly id="1148571618#1" type="building.yes" color="255,230,230" fill="1" layer="-1.00" shape="3304.847777,560.666723 3299.032444,548.996189 3306.856926,544.720080 3311.677030,553.542472 3311.634696,556.886990 3304.847777,560.666723"/>
    <poly id="1148834113" type="amenity.place_of_worship" color="237,199,199" fill="1" layer="-1.00" shape="4113.990978,1313.761554 4138.839034,1289.108662 4126.893149,1275.234669 4100.578683,1299.570005 4104.339155,1304.214040 4109.564645,1309.286354 4113.990978,1313.761554"/>
    <poly id="1148834113#1" type="building.yes" color="255,230,230" fill="1" layer="-1.00" shape="4113.990978,1313.761554 4138.839034,1289.108662 4126.893149,1275.234669 4100.578683,1299.570005 4104.339155,1304.214040 4109.564645,1309.286354 4113.990978,1313.761554"/>
    <poly id="1148834114" type="building.yes" color="255,230,230" fill="1" layer="-1.00" shape="3872.473814,1534.081215 3848.084139,1512.617833 3864.531442,1492.633244 3888.912023,1514.816444 3872.473814,1534.081215"/>
    <poly id="1148834114#1" type="shop.supermarket" color="237,199,255" fill="1" layer="-1.00" shape="3872.473814,1534.081215 3848.084139,1512.617833 3864.531442,1492.633244 3888.912023,1514.816444 3872.473814,1534.081215"/>
    <poly id="1148834115" type="natural.wood" color="140,196,107" fill="1" layer="-4.00" shape="3831.904273,1491.977947 3823.084927,1482.008773 3822.728307,1471.426415 3822.831431,1463.253413 3833.560895,1456.178125 3835.276942,1454.516181 3833.627545,1450.895576 3845.356244,1440.698297 3862.548457,1457.983751 3831.904273,1491.977947"/>
    <poly id="1148869186" type="building.yes" color="255,230,230" fill="1" layer="-1.00" shape="3680.030280,1817.144032 3686.030100,1819.124904 3691.081882,1808.843424 3688.069949,1808.805398 3690.302836,1805.842989 3687.035929,1804.162453 3680.030280,1817.144032"/>
    <poly id="1148869186#1" type="shop.beauty" color="237,199,255" fill="1" layer="-1.00" shape="3680.030280,1817.144032 3686.030100,1819.124904 3691.081882,1808.843424 3688.069949,1808.805398 3690.302836,1805.842989 3687.035929,1804.162453 3680.030280,1817.144032"/>
    <poly id="1148873351" type="amenity.place_of_worship" color="237,199,199" fill="1" layer="-1.00" shape="3719.704930,1930.191094 3726.914909,1914.775291 3732.027501,1919.093116 3738.216888,1921.430797 3730.950690,1936.447148 3723.781148,1935.714232 3719.704930,1930.191094"/>
    <poly id="1148873351#1" type="building.yes" color="255,230,230" fill="1" layer="-1.00" shape="3719.704930,1930.191094 3726.914909,1914.775291 3732.027501,1919.093116 3738.216888,1921.430797 3730.950690,1936.447148 3723.781148,1935.714232 3719.704930,1930.191094"/>
    <poly id="1148875446" type="landuse.residential" color="235,235,227" fill="1" layer="-3.00" shape="3590.133730,1979.151575 3603.409205,1958.108139 3701.700985,2016.004466 3682.887346,2052.695327 3590.133730,1979.151575"/>