<?xml version="1.0" encoding="UTF-8"?>

<!-- generated on 2025-09-11 00:24:47.182869 by osmWebWizard.py UNKNOWN
<configuration>
    <net-file value="/home/pereira/2025-09-11-00-22-14/osm.net.xml.gz"/>
    <additional-files value="/home/pereira/2025-09-11-00-22-14/osm_stops.add.xml,/home/pereira/2025-09-11-00-22-14/osm_pt.rou.xml"/>
    <output-trip-file value="/home/pereira/2025-09-11-00-22-14/osm.pedestrian.trips.xml"/>
    <route-file value="/home/pereira/2025-09-11-00-22-14/osm.pedestrian.rou.xml"/>
    <persontrips value="True"/>
    <persontrip.walk-opposite-factor value="0.8"/>
    <prefix value="ped"/>
    <trip-attributes value="modes=&quot;public&quot;"/>
    <vehicle-class value="pedestrian"/>
    <fringe-factor value="1"/>
    <seed value="45"/>
    <insertion-density value="10.0"/>
    <duarouter-weights.tls-penalty value="20"/>
</configuration>
-->

<routes xmlns:xsi="http://www.w3.org/2001/XMLSchema-instance" xsi:noNamespaceSchemaLocation="http://sumo.dlr.de/xsd/routes_file.xsd">
    <vType id="ped_pedestrian" vClass="pedestrian"/>
    <person id="ped0" depart="0.00" type="ped_pedestrian">
        <personTrip from="-163335406#1" to="-966719289" modes="public"/>
    </person>
    <person id="ped1" depart="400.76" type="ped_pedestrian">
        <personTrip from="-163335417#0" to="163335406#1" modes="public"/>
    </person>
    <person id="ped2" depart="801.52" type="ped_pedestrian">
        <personTrip from="163335406#1" to="-163335406#0" modes="public"/>
    </person>
    <person id="ped3" depart="1202.28" type="ped_pedestrian">
        <personTrip from="163335417#1" to="163335406#0" modes="public"/>
    </person>
    <person id="ped4" depart="1603.05" type="ped_pedestrian">
        <personTrip from="-163335406#0" to="-163335406#1" modes="public"/>
    </person>
    <person id="ped5" depart="2003.81" type="ped_pedestrian">
        <personTrip from="163335406#1" to="966719289" modes="public"/>
    </person>
    <person id="ped6" depart="2404.57" type="ped_pedestrian">
        <personTrip from="-163294275" to="-163294275" modes="public"/>
    </person>
    <person id="ped7" depart="2805.33" type="ped_pedestrian">
        <personTrip from="163335406#1" to="-163335417#0" modes="public"/>
    </person>
    <person id="ped8" depart="3206.09" type="ped_pedestrian">
        <personTrip from="-163335417#1" to="163335417#1" modes="public"/>
    </person>
</routes>
