<?xml version="1.0" encoding="UTF-8"?>

<!-- generated on 2025-10-05 22:56:18.371795 by randomTrips.py UNKNOWN
<configuration>
    <net-file value="scenarios/from_osm/osm.net.xml"/>
    <output-trip-file value="scenarios/from_osm/osm.trips.xml"/>
    <route-file value="scenarios/from_osm/osm.rou.xml"/>
    <end value="5000.0"/>
    <period value="1.8"/>
</configuration>
-->

<!-- generated on 2025-10-05 22:56:06 by Eclipse SUMO duarouter Version 1.24.0
<duarouterConfiguration xmlns:xsi="http://www.w3.org/2001/XMLSchema-instance" xsi:noNamespaceSchemaLocation="http://sumo.dlr.de/xsd/duarouterConfiguration.xsd">

    <input>
        <net-file value="scenarios/from_osm/osm.net.xml"/>
        <route-files value="scenarios/from_osm/osm.trips.xml"/>
    </input>

    <output>
        <output-file value="scenarios/from_osm/osm.rou.xml"/>
        <alternatives-output value="NUL"/>
    </output>

    <time>
        <begin value="0"/>
        <end value="5000.0"/>
    </time>

    <report>
        <no-warnings value="true"/>
        <ignore-errors value="true"/>
        <no-step-log value="true"/>
    </report>

</duarouterConfiguration>
-->

<routes xmlns:xsi="http://www.w3.org/2001/XMLSchema-instance" xsi:noNamespaceSchemaLocation="http://sumo.dlr.de/xsd/routes_file.xsd">
    <vehicle id="0" depart="0.00">
        <route edges="173075699#0 -173075577 -173075581#1 -173075581#0 -332465801#38 -332465801#37 -332465801#36 -332465801#35 -332465801#34 -332465801#33 -332465801#32 -332465801#31 -332465801#30 -332465801#29 -332465801#28 -332465801#27 -332465801#26 -332465801#25 -332465801#24 -332465801#23 -332465801#22 -332465801#21 -332465801#20 -332465801#19 -332465801#18 -332465801#17 -332465801#16 -332465801#15 -332465801#14 -332465801#13 173157406#0 173157406#1 173157406#2 173157406#3 173157406#4 173157406#5 173157406#6 173157406#7 173157406#8 173157406#9 652483193#0 652483193#1 652483193#2 652483193#3 652483193#4 652483193#5 652483193#6 652483193#7 652483193#8 652483193#9 652483193#10 780502930 173159365#1 173159365#2 173159365#3 1163037322#2 1163037323 387316777#0 387316777#1 387316777#2 387316777#3 387316777#4 387316777#5 387316777#6 387316777#7 387316777#8 387316751#0 387316751#1 387316751#2 387316751#3 387316751#4 387316751#5 1426337579#0 1426337579#1 1426337579#2 387316797#0 387316797#1 387316797#2 387316797#3 387316797#4 1426337578#0 1426337578#1 470655994#0 470655994#1 470655994#2 470655994#3 1001201950#0 1001201950#1 1001201950#2 1001201950#3 470655979#0 470655979#1 -156238379#1 -156239235#5 -156239235#4"/>
    </vehicle>
    <vehicle id="1" depart="1.80">
        <route edges="-173869737#4 -173869737#3 -173869737#2 -173869737#1 -313028517#1 -185218769#2 -173082284#4 -173082284#3 -173082284#2 -173082284#1 -173082284#0 173082279#3 -546120060 185218780#2 520721277#2 520721277#3 520721277#4 520721277#5 313156224#0 313156224#1 364183447#0 364183447#1 348770180#0 348770180#1 353547031#0 353547031#1 353547031#2 353547031#3 353547031#4 647510931 173082282#0 173082282#1 173082282#2 173082282#3 -535822391#3 173157420 547779814#0 547779814#1 547779814#2 547779814#3 547779814#4 652483193#1 652483193#2 652483193#3 652483193#4 652483193#5 652483193#6 652483193#7 173157404#0 -173157401#1 -173157401#0 173157400#1 -173157314 173157383#0 173157383#1 -173157336"/>
    </vehicle>
    <vehicle id="2" depart="3.60">
        <route edges="173159443#1 547462768 547462766#0 547462766#1 -173159354#3 -173159354#2 -173159354#1 -173159354#0 -1390833001#7 -1390833001#6 -1390833001#5 -1390833001#4 -1390833001#3 -1390833001#2 -1390833001#1 -1390833001#0 1390833000#0 1390833000#1 1390833000#2 1390833000#3 1390833000#4 1390833000#5 1390833000#6 -173157363#12 -173157363#11 -173157363#10 -173157363#9 -173157363#8 -173157363#7 -173157363#6 -173157363#5 -173157363#4 -173157363#3 -173157363#2 -173157363#1 -173157363#0 173157396#0 173157396#1 866913244 866913245#0 866913245#1 866913245#2 652483198 387316755#0 387316755#1 -652483193#8 -652483193#7 -652483193#6 -652483193#5 -652483193#4 -652483193#3 -652483193#2 -652483193#1 -547779814#4 -547779814#3 -547779814#2 -547779814#1 -547779814#0 -173157420 535822391#3 173157388#0 173157388#1 173157388#2 173157388#3 -1300063415 1290162292#0 1290162292#1 1183566841#0 1183566841#1 313156229 -520721277#5 -520721255 173082299#3 173082299#4"/>
    </vehicle>
    <vehicle id="3" depart="5.40">
        <route edges="544139429#0 544139429#1 163291399 934030631 -152906308#2 -152906308#1 -152906308#0 -163291390#2 -163291390#1 -163291390#0 159758963#9 160289260#0 160289260#1 313850655#6 932545083 932545084#0 932545084#1 780599268 160177498#0 160177476#0 160177449#0 -537562693#13 -537562693#12 1148834116 924571939 -160056791#9 -160056791#8 -160056791#7 -160056791#6"/>
    </vehicle>
    <vehicle id="4" depart="7.20">
        <route edges="-904903227 160177505#1 160177505#2 160177505#3 160177505#4 -160177483#8 -160177483#7 -160177483#6 -160177483#5 -160177483#4 -160177483#3 -160177483#2 -160177483#1 -160177483#0 -387316728#0 387316734#0 387316734#1 945436718#0 945436718#1 1410776028#0 1410776028#1 387316722 -387316691 -387316701 -387316704 387316712 226640219#6 226640219#7 226640219#8 1163037322#0 1163037322#1 1163037322#2 1163037323 387316777#0 387316777#1 387316777#2 387316777#3 387316777#4 387316777#5 387316777#6 387316777#7 387316777#8 387316751#0 387316751#1 387316751#2 387316751#3 387316751#4 387316751#5 1426337579#0 1426337579#1 1426337579#2 387316797#0 387316797#1 387316797#2 387316797#3 387316797#4 1426337578#0 1426337578#1 470655994#0 1426337573 1426337574#1 470655988#0 -157161988#1"/>
    </vehicle>
    <vehicle id="5" depart="9.00">
        <route edges="-173157296#1 -173157346#0 -173157329#4 -173157329#3 -173157329#2 -173157322 -196932514#1 -196932514#0 173157352 652483193#0 652483193#1 652483193#2 652483193#3 652483193#4 652483193#5 652483193#6 652483193#7 652483193#8 652483193#9 652483193#10 780502930 173159365#1 1163037325 -226640219#7 -226640219#6 -387316712 387316704 387316701 387316691 387316725 932653881 134667414 387316728#0 387316728#1 387316728#2 387316728#3 387316728#4 387316728#5 387316728#6 387316728#7 387316728#8 387316728#9 387316728#10 387316728#11 160177488 160177475#0 160177475#1 -160177452#4 -160177452#3 -160177452#2 -160177452#1 -160177452#0 182105822#1 182105822#2 182105822#3 182105822#4 182105822#5 182105822#6 182105822#7 182105822#8 182105822#9 182105822#10 182105822#11 182105822#12 182105822#13 182105822#14 182105822#15 537562688#4 537562694 -932637641#1 -932637641#0 934023451#0 934023451#1 934023451#2 -656303108#3 -656303108#2 -656303108#1 -656303108#0 -654290512#8 -654290512#7 -654290512#6 -654290512#5 -654290512#4 -159667546#1 158262260#0"/>
    </vehicle>
    <vehicle id="6" depart="10.80">
        <route edges="-157160632#1 -157160632#0 1416359537#3 1416359537#0 665917832 924522545 -1390833001#2 -1390833001#1 -1390833001#0 1390833000#0 1390833000#1 1390833000#2 1390833000#3 1390833000#4 1390833000#5 1390833000#6 -173157363#12 -173157363#11 -173157363#10 -173157363#9 173157410 654022534#0 654022534#1 654022534#2 654022534#3 -173157291#5 -173157291#4 -173157291#3 -173157291#2 -173157291#1 -173157291#0 173157286 547781599#0 547781599#1 -196932519#2 -196932519#1 -196932519#0 332465801#0 332465801#1 332465801#2 173085075#0 173085075#1 173085075#2 173085075#3 173085075#4 173085075#5 173085075#6 173085075#7 173085075#8 173085075#9 173085075#10 866928905#0 866928905#1 866928905#2 866928905#3 866928905#4 196885601#3 196885601#4 196885601#5 196885601#6 196885601#7 196885601#8 -173085067#1"/>
    </vehicle>
    <vehicle id="7" depart="12.60">
        <route edges="173075865#1 173075865#2 866928904 647523016#3 866916132 520721247 520721248#0 520721248#1 520721248#2 520721248#3 520721248#4 520721248#5 520721248#6 520721248#7 520721248#8 520721248#9 520721248#10 -332465801#19 -332465801#18 -332465801#17 -332465801#16 -332465801#15 -332465801#14 -332465801#13 173157406#0 173157406#1 173157406#2 173157406#3 173157406#4 173157406#5 173157406#6 173157406#7 173157406#8 173157406#9 652483193#0 652483193#1 652483193#2 652483193#3 652483193#4 652483193#5 652483193#6 652483193#7 652483193#8 652483193#9 652483193#10 780502930 173159365#1 1163037325 -226640219#7 -226640219#6 -387316712 387316704 387316701 387316691 387316725 932653881 134667414 387316728#0 387316728#1 387316728#2 387316728#3 387316728#4 387316728#5 387316728#6 387316728#7 387316728#8 387316728#9 387316728#10 387316728#11 387316728#12 934299217 -182105794 -134667407#11 -134667407#10 -134667407#9 -134667407#8 -134667407#7 -134667407#6 -134667407#5 160056769#0 160056769#1"/>
    </vehicle>
    <vehicle id="8" depart="14.40">
        <route edges="-173157313 -173157328#3 -173157328#2 -173157328#1 -173157328#0 173157406#3 173157406#4 173157406#5 173157406#6 173157406#7 173157406#8 173157406#9 652483193#0 652483193#1 652483193#2 652483193#3 652483193#4 652483193#5 652483193#6 652483193#7 652483193#8 652483193#9 652483193#10 780502930 173159365#1 1163037325 -226640219#7 -226640219#6 -387316712 387316704 387316701 387316691 387316725 932653881 134667414 387316728#0 387316728#1 387316728#2 387316728#3 387316728#4 387316728#5 387316728#6 387316728#7 387316728#8 387316728#9 387316728#10 387316728#11 160177488 160177475#0 160177475#1 -160177452#4 -160177452#3 -160177452#2 -160177452#1 -160177452#0 182105822#1 182105822#2 182105822#3 182105822#4 182105822#5 182105822#6 182105822#7 182105822#8 182105822#9 182105822#10 182105822#11 182105822#12 182105822#13 182105822#14 182105822#15 537562688#4 537562688#5 537562688#6 537562689 -932630551#6 160287962#0 160287962#1 160287962#2 160287960#0 160287960#1 -320367321#1 160287927#0 160287927#1 160287927#2"/>
    </vehicle>
    <vehicle id="9" depart="16.20">
        <route edges="315961621#1 315961621#2 -158262260#8 159667545#0 159667545#1 544131187#2 159667532#0 159667532#1 159667532#2 -932630552#2 -932630552#1 -932630552#0 -163294290#4 -163294290#3 -163294290#2 -163294290#1 -163294290#0 -533828802#2 -533828802#1 -533828802#0 -159758947#8 -159758947#7 217676886 -533828799#3 -533828799#2 -533828799#1 -1191283910#1 -1191283910#0 -1191283909"/>
    </vehicle>
    <vehicle id="10" depart="18.00">
        <route edges="311742797 410045890#6 -159929398#6 -159929398#5 -159929398#4 -159929398#3 -159929398#2 -159929398#1 -159929398#0 159929401#4 159929401#5 601848588#4 601848588#5 601848588#6 601848588#7 -160056863#11 -160056863#10 -160056863#9 -160056863#8 -160056863#7 -160056863#6 -160056863#5 -160056863#4 -160056863#3 -160056863#2 -160056863#1 -160056863#0 -932651118#1 -932651118#0 -932651468 -932651119#5 -932651119#4 -932651119#3 -932651119#2 -932651119#1 -932651119#0 -934299217 -387316728#12 -387316728#11 -387316728#10 -387316728#9 -387316728#8 -387316728#7 -387316728#6 -387316728#5 -387316728#4 -387316728#3 -387316728#2 -387316728#1 -387316728#0 387316734#0 387316734#1 945436718#0 945436718#1 1410776028#0 1410776028#1 387316722 -387316691 -387316701 -387316704 387316712 226640219#6 226640219#7 226640219#8 1163037322#0 1163037322#1 1163037322#2 1163037323 387316777#0 387316780 173157392#1 593952285#0 593952285#1 387316770 866913245#2 652483196#0 652483196#1 652483196#2 652483199 -173157396#1 -173157396#0 173157363#0 173157363#1 173157363#2 173157363#3 173157363#4 173157363#5 173157363#6 173157363#7 173157363#8 173157410 654022534#0 654022534#1 654022534#2 654022534#3 173157398#0 173157398#1 173157398#2 173157398#3 -173157334 -173157289#4 -173157289#3 173157295"/>
    </vehicle>
    <vehicle id="11" depart="19.80">
        <route edges="-470655988#1 -470655988#0 1426337575 -1426337576 470655976#1 -1426337578#1 -1426337578#0 1426337581#0 1426337581#1 1426337581#2 -1426337579#2 -1426337579#1 -1426337579#0 387316789#0 387316789#1 387316789#2 387316789#3 387316789#4 387316789#5 387316789#6 -1163037323 1163037324#0 1163037324#1 -226640219#8 -226640219#7 -226640219#6 387316714#0 387316714#1 -652483193#11 -652483193#10 -652483193#9 -652483193#8 -652483193#7 -652483193#6 -652483193#5 -652483193#4 -652483193#3 -652483193#2 -652483193#1 -652483193#0 -173157406#9 -173157406#8 -173157406#7 -173157406#6 -173157406#5 -173157406#4 -173157406#3 -173157406#2 -173157406#1 -173157406#0 332465801#13 332465801#14 332465801#15 332465801#16 332465801#17 332465801#18 332465801#19 -520721248#10 -520721248#9 -520721248#8 -520721248#7 -520721248#6 -520721248#5 -520721248#4 -520721248#3 -520721248#2 -520721248#1 -520721248#0 188822664 647523024#2 520717406#0 520717406#1 520717406#2 520717406#3 520717406#4 520717406#5 520717406#6 -173075651#16 -173075651#15 -173075651#14 -173075651#13 -173075651#12 -173075651#11 -173075651#10"/>
    </vehicle>
    <vehicle id="12" depart="21.60">
        <route edges="904905554 387316728#9 387316728#10 387316728#11 387316728#12 934299217 932651119#0 932651119#1 932651119#2 932651119#3 932651119#4 932651119#5 932651468 654089030#0 654089030#1 -182105837#3 -160056824 -160056873#1 -160056873#0 921021081 -160056792#0 -936824068#1 -936824068#0 385949131#0 385949131#1 385949131#2 385949131#3 385949131#4 385949131#5 385949131#6 385949131#7 385949131#8 385949131#9 385949131#10 385949131#11 385949131#12 -385949131#12 -385949131#11 -385949131#10 -385949131#9 -385949131#8 -385949131#7"/>
    </vehicle>
    <vehicle id="13" depart="23.40">
        <route edges="-160056830#0 160056863#2 160056863#3 160056863#4 160056863#5 160056863#6 160056863#7 160056863#8 160056863#9 160056863#10 160056863#11 -601848588#7 -601848588#6 -601848588#5 -601848588#4 -601848588#3 -601848588#2 952473991 160056773#0 160289189 -160056853"/>
    </vehicle>
    <vehicle id="14" depart="25.20">
        <route edges="486645602#7 -544163209#0 160177504#0 160177504#1 160177504#2 160289203#0 -1382360228 -385949116#1 -385949116#0 924761512#4 924761512#5 159603631 544139429#0 544139429#1 163291399 934030631 -152906308#2 -152906308#1 -152906308#0 -163291390#2 -163291390#1 -163291390#0 -159758963#8 -159758963#7 -159758963#6 -159758963#5 -159758963#4 -159758963#3 -159758963#2 -159758963#1 -159758963#0 158280231#0 158280231#1 158280231#2 158280231#3 163291388#0 163291388#1 533828802#0 533828802#1 533828802#2 163291391#0"/>
    </vehicle>
    <vehicle id="15" depart="27.00">
        <route edges="313850655#0 -313850655#0 -1236600670 -924761512#5 -924761512#4 -924761512#3 -924761512#2 -924761512#1 -924761512#0 -924626944#6 -924626944#5 -924626944#4 -924626944#3 -924626944#2 -924626944#1 -924626944#0 780264591 781000683 160177481 676699254 1415329635 1414981499#0 1414981499#1 1414981499#2 226640218 226640219#0 226640219#1 226640219#2 226640219#3 226640219#4 226640219#5 226640219#6 226640219#7 226640219#8 1163037322#0 1163037322#1 1163037322#2 1163037323 387316777#0 387316777#1 387316777#2 387316777#3 387316777#4 387316777#5 387316777#6 387316777#7 387316777#8 387316751#0 387316751#1 387316751#2 387316751#3 387316751#4 387316751#5 1426337579#0 1426337579#1 1426337579#2 387316797#0 387316797#1 387316797#2 387316797#3 387316797#4 1426337578#0 1426337578#1 470655994#0 470655994#1 470655994#2 470655994#3 1001201950#0 1001201950#1 1001201950#2 1001201950#3 470655979#0 173159391#0 173159391#1"/>
    </vehicle>
    <vehicle id="16" depart="28.80">
        <route edges="159758948#1 -159758948#1 -159758948#0 163291390#0 163291390#1 163291390#2 152906308#0 152906308#1 152906308#2 932552026 932552025 544139434 780558587 -544139429#1 -544139429#0 -159603631 -924761512#5 -924761512#4 -924761512#3 -924761512#2 -924761512#1 -924761512#0 -924626944#6 -924626944#5 -924626944#4 -924626944#3 -924626944#2 -924626944#1 -924626944#0 780264591 781000683 160177481 676699254 1415329635 1414981499#0 1414981499#1 1414981499#2 226640218 226640219#0 226640219#1 226640219#2 226640219#3 226640219#4 226640219#5 -387316712 387316704 387316701 387316691 387316725 932653881 932653880#1"/>
    </vehicle>
    <vehicle id="17" depart="30.60">
        <route edges="-544131197#0 544131197#0 544131197#1 544131197#2 544131197#3 544131197#4 544131197#5 544131197#6 544131197#7 932566961#0 932566961#1 159607615 932560215#1 932560215#2 932560215#3 544139438 208937196#0 208937196#1 208937196#2 208937196#3 537568165 537568168#0 537568168#1 158280231#0 158280231#1 158280231#2 158280231#3 163291388#0 163291388#1 533828802#0 533828802#1 533828802#2 163294290#0 163294290#1 163294290#2 163294290#3 163294290#4 932630552#0 932630552#1 932630552#2 932630552#3 932630551#0 932630551#1 932630551#2 932630551#3 932630551#4 932630551#5 932630551#6 537562690 537562688#1 537562688#2 537562688#3 -182105822#15 160056832#0 160056832#1 160056791#0"/>
    </vehicle>
    <vehicle id="18" depart="32.40">
        <route edges="387316706 173157301#1 226640219#5 387316714#0 387316714#1 -652483193#11 -652483193#10 -652483193#9 -652483193#8 -652483193#7 -652483193#6 -652483193#5 -652483193#4 -652483193#3 -652483193#2 -652483193#1 -547779814#4 -547779814#3 -547779814#2 -547779814#1 -547779814#0 -173157420 535822391#3 173157388#0 173157388#1 173157388#2 173157388#3 -1300063415 1290162292#0 1290162292#1 1183566841#0 1183566841#1 313156229 -520721277#5 -520721277#4 -520721277#3 -520721277#2 -520721277#1 -520721277#0 520723607#2 520721276#0 520721276#1 520721276#2 520721275#0 520721275#1 520721275#2 520721275#3 173070219#0 173070219#1 173070219#2"/>
    </vehicle>
    <vehicle id="19" depart="34.20">
        <route edges="532734641#2 -173159449#2 -173159449#1 -173159449#0 654068137 1041218832#9 1041218832#10 1041218832#11 1041218832#12 1041218832#13 1041218832#14 1041218832#15 1041218832#16 1041218833 332465801#0 332465801#1 332465801#2 332465801#3 332465801#4 332465801#5 332465801#6 332465801#7 332465801#8 332465801#9 332465801#10 332465801#11 332465801#12 173157406#0 173157406#1 173157406#2 173157406#3 173157406#4 173157406#5 173157406#6 173157406#7 173157406#8 173157406#9 652483193#0 652483193#1 652483193#2 652483193#3 652483193#4 652483193#5 652483193#6 652483193#7 652483193#8 -173157282#2 -173157337#1 -173157337#0 -226640219#2 -226640219#1 -226640219#0 226640216 160177477 676699255 781000684 780264592 924626944#0 924626944#1 924626944#2 924626944#3 924626944#4 924626944#5 924626944#6 -537562693#24 -537562693#23 -537562693#22 -537562693#21 -537562693#20 -537562693#19 -537562693#18 -537562693#17 -160177479#1 160177479#1"/>
    </vehicle>
    <vehicle id="20" depart="36.00">
        <route edges="173157336 -173157383#1 -173157318 -173157400#3 173157343 173157401#1 173157404#1 652483193#6 652483193#7 652483193#8 652483193#9 652483193#10 780502930 173159365#1 1163037325 -226640219#7 -226640219#6 -387316712 387316704 387316701 387316691 387316725 932653881 134667414 387316728#0 387316728#1 387316728#2 387316728#3 387316728#4 387316728#5 387316728#6 387316728#7 387316728#8 387316728#9 387316728#10 387316728#11 160177488 160177475#0 160177475#1 -160177452#4 -160177452#3 -160177452#2 -160177452#1 -160177452#0 182105822#1 182105822#2 182105822#3 182105822#4 182105822#5 182105822#6 182105822#7 182105822#8 182105822#9 182105822#10 182105822#11 182105822#12 182105822#13 182105822#14 182105822#15 537562688#4 537562694 -932637641#1 -932637641#0 934023451#0 934023451#1 934023451#2 -656303108#3 -656303108#2 -656303108#1 -656303108#0 -654290512#8 -654290512#7 -654290512#6 -654290512#5 -654290512#4 -654290512#3 -654290512#2 158262254#1 -158262260#1"/>
    </vehicle>
    <vehicle id="21" depart="37.80">
        <route edges="-173157360 173157329#9 173157329#10 -173157328#4 -173157328#3 -173157328#2 -173157328#1 -173157328#0 173157406#3 173157406#4 173157406#5 173157406#6 173157406#7 173157406#8 173157406#9 652483193#0 -547779814#4 -547779814#3 -547779814#2 -547779814#1 -547779814#0 -173157420 535822391#3 173157388#0 173157388#1 173157388#2 173157388#3 -1300063415 1290162292#0 1290162292#1 1183566841#0 1183566841#1 313156229 -520721277#5 -520721277#4 -520721277#3 -546125775#2 -546125775#1 -173082267#2 -173082267#1 -173082267#0 -173082279#1 -173082275#6 -173082275#5 -173082275#4 -173082275#3 -173082275#2 -185218769#4"/>
    </vehicle>
    <vehicle id="22" depart="39.60">
        <route edges="-160056870#3 160056870#3 -1056093801#1 -1056093801#0 182105822#4 -182105804#4"/>
    </vehicle>
    <vehicle id="23" depart="41.40">
        <route edges="173075652#13 173075652#14 173075896#0 173075896#1 173075896#2 173075896#3 173075896#4 -173075563#6 -173075563#5 -173075563#4 -173075563#3 -173075563#2 -173075563#1 -173075563#0 -173075786#1 -173075786#0 -332465801#35 -332465801#34 -332465801#33 -332465801#32 -332465801#31 -332465801#30 -332465801#29 -332465801#28 -332465801#27 -332465801#26 -332465801#25 -332465801#24 -332465801#23 -332465801#22 -332465801#21 -332465801#20 -332465801#19 -332465801#18 -332465801#17 -332465801#16 -332465801#15 -332465801#14 -332465801#13 173157406#0 173157406#1 173157406#2 173157406#3 173157406#4 173157406#5 173157406#6 173157406#7 173157406#8 173157406#9 652483193#0 652483193#1 652483193#2 652483193#3 652483193#4 652483193#5 652483193#6 652483193#7 652483193#8 652483193#9 652483193#10 780502930 173159365#1 173159365#2 173159365#3 1163037322#2 1163037323 387316777#0 387316777#1 387316777#2 387316777#3 387316777#4 387316777#5 387316777#6 387316777#7 387316777#8 387316751#0 387316751#1 387316751#2 1419965214 173157428 173157391#0 173157391#1 -535822399#2 -535822399#1"/>
    </vehicle>
    <vehicle id="24" depart="43.20">
        <route edges="-537568170 -159758967#0 -159758970#2 -159758970#1 -159758948#0 163291390#0 163291390#1 163291390#2 152906308#0 152906308#1 152906308#2 932552026 932552025 544139434 780558587 -544139429#1 -544139429#0 -159603631 -924761512#5 -924761512#4 -924761512#3 -924761512#2 -924761512#1 -924761512#0 -924626944#6 -924626944#5 -924626944#4 -924626944#3 -924626944#2 -924626944#1 -924626944#0 780264591 781000683 160177481 676699254 1415329635 1414981499#0 1414981499#1 1414981499#2 226640218 226640219#0 226640219#1 226640219#2 226640219#3 226640219#4 226640219#5 387316714#0 387316714#1 -652483193#11 -652483193#10 -652483193#9 -652483193#8 -652483193#7 -652483193#6 -652483193#5 -652483193#4 -652483193#3 -652483193#2 -652483193#1 -652483193#0 -173157406#9 -173157406#8 -173157406#7 -173157406#6 -173157406#5 -173157406#4 -173157406#3 -173157406#2 -173157406#1 -173157406#0 -332465801#12 -332465801#11 -332465801#10 -332465801#9 -332465801#8 -332465801#7 -332465801#6 -332465801#5 -332465801#4 -332465801#3 173085075#0 173085075#1 173085075#2 173085075#3 173085075#4 173085075#5 173085075#6 173085075#7 173102091#0 173102091#1 173102091#2 173102091#3 196885602#0 196885602#1 196885602#2 196885602#3 -173102116#2 924512578 -173102122#2"/>
    </vehicle>
    <vehicle id="25" depart="45.00">
        <route edges="-173163529#0 -173163563#1 -173163563#0 479908534#0 479908534#1 479908534#2 -197423582#1 -197423582#0 -173163414#0 -173163451#1 -173163451#0 -538811343#2 -538811343#1 -538811343#0 -173163476 -479911925#1 -173163576 -924606842#0 -520708772#10 -520708772#9 -520708772#8 -520708772#7 -520708772#6 -520708772#5 -520708772#4 -520708772#3 -520708772#2 -520708772#1 -520708772#0 -538799781#2 -538799781#1 -538799781#0 -173163404#2 -173163404#1 -173163404#0 -173102115#3 -173102115#2 -173102115#1 -173102115#0 196885601#0 196885601#1 196885601#2 -866928905#4 -866928905#3 -866928905#2 -866928905#1 -866928905#0 -173085075#10 -173085075#9 -173085075#8 -173085075#7 -173085075#6 -173085075#5 -173085075#4 -173085075#3 -173085075#2 -173085075#1 -173085075#0 332465801#3 332465801#4 332465801#5 332465801#6 332465801#7 332465801#8 332465801#9 332465801#10 332465801#11 332465801#12 173157406#0 173157406#1 173157406#2 173157406#3 173157406#4 173157406#5 173157406#6 173157406#7 173157406#8 173157406#9 652483193#0 652483193#1 652483193#2 652483193#3 652483193#4 652483193#5 652483193#6 652483193#7 652483193#8 652483193#9 652483193#10 780502930 173159365#1 1163037325 -226640219#7 -226640219#6 -387316712 387316704 387316701 387316691 387316725 932653881 134667414 387316728#0 160177483#0 160177483#1 160177483#2 160177483#3 160177483#4 160177483#5 160177483#6 -637694071#6 -637694071#5 -637694071#4 -637694071#3 657337398"/>
    </vehicle>
    <vehicle id="26" depart="46.80">
        <route edges="173075854#1 173075854#2 173075854#3 173075823 173075647#3 173075647#4 173075647#5 173075647#6 173075664 647523014 647523021#5 647523021#6 647523020 832624651#0 832624651#1 832624651#2 832624652 647523024#0 647523011 520721247 520721248#0 520721248#1 520721248#2 520721248#3 520721248#4 520721248#5 520721248#6 520721248#7 520721248#8 520721248#9 520721248#10 -332465801#19 -332465801#18 -332465801#17 -332465801#16 -332465801#15 -332465801#14 -332465801#13 173157406#0 173157406#1 173157406#2 173157406#3 173157406#4 173157406#5 173157406#6 173157406#7 173157406#8 173157406#9 652483193#0 652483193#1 652483193#2 652483193#3 652483193#4 652483193#5 652483193#6 652483193#7 652483193#8 -173157282#2 -173157337#1 -173157337#0 -226640219#2 -226640219#1 -226640219#0 226640216 160177477 676699255 781000684 1410776028#6 868953499#0 -544163214 -159598280#9 -159598280#8 -159598280#7 -159598280#6 -159598280#5 163335418#0 163335402"/>
    </vehicle>
    <vehicle id="27" depart="48.60">
        <route edges="-173075851#2 173075853#0 173075853#1 173075853#2 173075853#3 173075853#4 173075853#5 173075652#6 173075652#7 173075652#8 173075652#9 173075652#10 173075652#11 173075652#12 173075652#13 173075652#14 173075896#0 173075896#1 173075769 173075651#15 173075651#16 173075651#17 647523021#0 647523021#1 647523021#2 647523021#3 647523021#4 647523021#5 647523021#6 647523020 832624651#0 832624651#1 647523019#0 647523019#1 -520721245#1 -520721245#0 -196885601#12 -196885601#11 -196885601#10 -196885601#9 -196885601#8 -196885601#7 -196885601#6 -196885601#5 -196885601#4 -196885601#3 -866928905#4 -866928905#3 -866928905#2 -866928905#1 -866928905#0 -173085075#10 -173085075#9 -173085075#8 -173085075#7 -173085075#6 -173085075#5 -173085075#4 -173085075#3 -173085075#2 -173085075#1 -173085075#0 -332465801#2 -332465801#1 -332465801#0 -1041218833 -1041218832#16 -1041218832#15 -1041218832#14 -1041218832#13 -1041218832#12 -1041218832#11 -1041218832#10 -1041218832#9 -1041218832#8 173159379 -173159449#1 -173159449#0 -173159398#10 -173159398#9 -173159398#8 -173159398#7 -173159398#6 -173159398#5 -173159398#4 -173159398#3 173159452#0 173159452#1 173159447#0 -173159385#1 -173159385#0 173159385#0 173159385#1"/>
    </vehicle>
    <vehicle id="28" depart="50.40">
        <route edges="-173075705#0 -173075642#0 173075647#0 173075647#1 173075647#2 173075647#3 173075647#4 173075647#5 173075647#6 173075664 647523014 647523021#5 647523021#6 647523020 832624651#0 832624651#1 832624651#2 832624652 647523024#0 647523011 520721247 520721248#0 520721248#1 520721248#2 520721248#3 520721248#4 520721248#5 520721248#6 520721248#7 520721248#8 520721248#9 520721248#10 -332465801#19 -332465801#18 -332465801#17 -332465801#16 -332465801#15 -332465801#14 -332465801#13 173157406#0 173157406#1 173157406#2 173157406#3 173157406#4 173157406#5 173157406#6 173157406#7 173157406#8 173157406#9 652483193#0 652483193#1 652483193#2 652483193#3 652483193#4 652483193#5 652483193#6 652483193#7 652483193#8 -173157282#2 -173157337#1 -173157337#0 -226640219#2 -226640219#1 -226640219#0 226640216 160177477 676699255 781000684 780264592 924626944#0 924626944#1 924626944#2 924626944#3 924626944#4 924626944#5 924626944#6 924761512#0 924761512#1 924761512#2 924761512#3 924761512#4 924761512#5 159603631 544139429#0 544139429#1 163291399 934030631 -152906308#2 -152906308#1 -152906308#0 -163291390#2 -163291390#1 -163291390#0 -159758963#8 -159758963#7 -159758963#6 -159758963#5 -159758963#4 -159758963#3 -159758963#2 -159758963#1 -159758963#0 158280231#0 158280231#1 158280231#2 158280231#3 917877012#0 917877012#1 533828806#0 533828806#1 533828806#2 -159607485#4 515551630#0 515551630#1 -159607481#2 -159607481#1 -159607481#0 -159607442#0 -544131192"/>
    </vehicle>
    <vehicle id="29" depart="52.20">
        <route edges="945283567 -159607487#1 159607487#1 945283568 544154873#2 544154873#3 945283566 147022276#3 147022276#4 544131205#0 544131205#1 932904847#0 932904847#1 544131200#0 544131200#1 544131200#2 934000184 934000187#0 934000187#1 695757831#0 695757831#1 544131201#0 544131201#1 539082002#0 539082002#1 539082008#0 539082008#1 539082000#0 539082000#1 539082000#2 -159603631 -924761512#5 -924761512#4 -924761512#3 -924761512#2 -924761512#1 -924761512#0 -924626944#6 -924626944#5 -924626944#4 -924626944#3 -924626944#2 -924626944#1 -924626944#0 780264591 781000683 160177481 676699254 1415329635 1414981499#0 1414981499#1 1414981499#2 226640218 226640219#0 226640219#1 226640219#2 226640219#3 226640219#4 226640219#5 387316714#0 387316714#1 -652483193#11 -652483193#10 -652483193#9 -652483193#8 -652483193#7 -652483193#6 -652483193#5 -652483193#4 -652483193#3 -652483193#2 -652483193#1 -652483193#0 -173157406#9 -173157406#8 -173157406#7 -173157406#6 -173157406#5 -173157406#4 -173157406#3 -173157406#2 -173157406#1 -173157406#0 332465801#13 332465801#14 332465801#15 332465801#16 332465801#17 332465801#18 332465801#19 -520721248#10 -520721248#9 -520721248#8 -520721248#7 -520721248#6 -520721248#5 -520721248#4 -520721248#3 -520721248#2 -520721248#1 -520721248#0 188822664 647523024#2 520717406#0 966725759 647523015 -173075664 -173075647#6 -173075647#5 -173075647#4 -173075647#3 -173075647#2 -173075647#1 -173075647#0 -173075700#1 173075700#1"/>
    </vehicle>
    <vehicle id="30" depart="54.00">