<?xml version="1.0" encoding="UTF-8"?>

<!-- generated on 2025-09-11 00:22:53.104402 by osmWebWizard.py UNKNOWN
<configuration>
    <net-file value="/home/pereira/2025-09-11-00-22-14/osm.net.xml.gz"/>
    <output-trip-file value="/home/pereira/2025-09-11-00-22-14/osm.bus.trips.xml"/>
    <route-file value="/home/pereira/2025-09-11-00-22-14/osm.bus.rou.xml"/>
    <prefix value="bus"/>
    <trip-attributes value="departLane=&quot;best&quot;"/>
    <fringe-start-attributes value="departSpeed=&quot;max&quot;"/>
    <vehicle-class value="bus"/>
    <fringe-factor value="5"/>
    <edge-permission value="bus"/>
    <via-edge-types value="highway.motorway,highway.motorway_link,highway.trunk_link,highway.primary_link,highway.secondary_link,highway.tertiary_link"/>
    <min-distance value="600.0"/>
    <min-distance.fringe value="10.0"/>
    <remove-loops value="True"/>
    <insertion-density value="4.0"/>
</configuration>
-->

<routes xmlns:xsi="http://www.w3.org/2001/XMLSchema-instance" xsi:noNamespaceSchemaLocation="http://sumo.dlr.de/xsd/routes_file.xsd">
    <vType id="bus_bus" vClass="bus"/>
    <trip id="bus0" depart="0.00" from="173075732" to="-157164666#2" departLane="best" type="bus_bus"/>
    <trip id="bus1" depart="1.57" from="-173869737#6" to="-173157362#2" departLane="best" type="bus_bus" departSpeed="max"/>
    <trip id="bus2" depart="3.14" from="173159427#1" to="173082268#0" departLane="best" type="bus_bus"/>
    <trip id="bus3" depart="4.71" from="537562696#2" to="-160056822" departLane="best" type="bus_bus"/>
    <trip id="bus4" depart="6.28" from="-695757830#1" to="-157940071#2" departLane="best" type="bus_bus"/>
    <trip id="bus5" depart="7.85" from="-173157285#3" to="158262260#4" departLane="best" type="bus_bus"/>
    <trip id="bus6" depart="9.42" from="-157940062#2" to="-173102102" departLane="best" type="bus_bus" departSpeed="max"/>
    <trip id="bus7" depart="11.00" from="173075868#3" to="159929401#5" departLane="best" type="bus_bus"/>
    <trip id="bus8" depart="12.57" from="-173157295" to="160287956#1" departLane="best" type="bus_bus"/>
    <trip id="bus9" depart="14.14" from="197423565" to="-134667407#2" departLane="best" type="bus_bus"/>
    <trip id="bus10" depart="15.71" from="197077292#0" to="173102121#0" departLane="best" type="bus_bus" departSpeed="max"/>
    <trip id="bus11" depart="17.28" from="-470655988#1" to="-173075660#2" departLane="best" type="bus_bus"/>
    <trip id="bus12" depart="18.85" from="-160056860#1" to="-160056869#0" departLane="best" type="bus_bus"/>
    <trip id="bus13" depart="20.42" from="385947794#1" to="160289272" departLane="best" type="bus_bus"/>
    <trip id="bus14" depart="21.99" from="197203902" to="173157413#1" departLane="best" type="bus_bus" departSpeed="max"/>
    <trip id="bus15" depart="23.56" from="159758963#5" to="932630552#1" departLane="best" type="bus_bus"/>
    <trip id="bus16" depart="25.13" from="-544131183" to="160056786#9" departLane="best" type="bus_bus" departSpeed="max"/>
    <trip id="bus17" depart="26.70" from="226640219#0" to="173070146#2" departLane="best" type="bus_bus"/>
    <trip id="bus18" depart="28.27" from="479908534#0" to="160177495#0" departLane="best" type="bus_bus"/>
    <trip id="bus19" depart="29.84" from="173157346#1" to="-158280261#0" departLane="best" type="bus_bus"/>
    <trip id="bus20" depart="31.42" from="-173157346#0" to="-185204959#1" departLane="best" type="bus_bus"/>
    <trip id="bus21" depart="32.99" from="-160056780#2" to="-173157400#0" departLane="best" type="bus_bus"/>
    <trip id="bus22" depart="34.56" from="-160177461#1" to="-182105808#2" departLane="best" type="bus_bus"/>
    <trip id="bus23" depart="36.13" from="173075662#0" to="-520721245#0" departLane="best" type="bus_bus" departSpeed="max"/>
    <trip id="bus24" depart="37.70" from="-537568162" to="-173157291#0" departLane="best" type="bus_bus"/>
    <trip id="bus25" depart="39.27" from="-173163484" to="654086675#0" departLane="best" type="bus_bus"/>
    <trip id="bus26" depart="40.84" from="173075865#0" to="163291396" departLane="best" type="bus_bus"/>
    <trip id="bus27" depart="42.41" from="-173075831#4" to="173157406#9" departLane="best" type="bus_bus"/>
    <trip id="bus28" depart="43.98" from="-173075699#0" to="-535822399#0" departLane="best" type="bus_bus"/>
    <trip id="bus29" depart="45.55" from="944331823#1" to="173075651#13" departLane="best" type="bus_bus"/>
    <trip id="bus30" depart="47.12" from="160056832#2" to="173082289#2" departLane="best" type="bus_bus"/>
    <trip id="bus31" depart="48.69" from="332465801#38" to="184496042" departLane="best" type="bus_bus"/>
    <trip id="bus32" depart="50.26" from="-173157349#1" to="-158257418#1" departLane="best" type="bus_bus"/>
    <trip id="bus33" depart="51.84" from="-226640219#5" to="-173163543" departLane="best" type="bus_bus"/>
    <trip id="bus34" depart="53.41" from="-173102115#0" to="657337390" departLane="best" type="bus_bus"/>
    <trip id="bus35" depart="54.98" from="521024476" to="-196932514#0" departLane="best" type="bus_bus"/>
    <trip id="bus36" depart="56.55" from="173082199" to="-544154870#0" departLane="best" type="bus_bus" departSpeed="max"/>
    <trip id="bus37" depart="58.12" from="546230123#0" to="134667407#4" departLane="best" type="bus_bus" departSpeed="max"/>
    <trip id="bus38" depart="59.69" from="-173163451#0" to="-173159403#2" departLane="best" type="bus_bus"/>
    <trip id="bus39" depart="61.26" from="160056851#1" to="-173163419#0" departLane="best" type="bus_bus"/>
    <trip id="bus40" depart="62.83" from="160177520#2" to="544139435" departLane="best" type="bus_bus"/>
    <trip id="bus41" depart="64.40" from="-547781602#0" to="-173157345" departLane="best" type="bus_bus"/>
    <trip id="bus42" depart="65.97" from="969133798" to="158280243#2" departLane="best" type="bus_bus"/>
    <trip id="bus43" depart="67.54" from="-160056843#5" to="-158280266" departLane="best" type="bus_bus"/>
    <trip id="bus44" depart="69.11" from="-160177519#3" to="173075563#6" departLane="best" type="bus_bus" departSpeed="max"/>
    <trip id="bus45" depart="70.68" from="187678111#1" to="-655789373" departLane="best" type="bus_bus"/>
    <trip id="bus46" depart="72.26" from="-159667519" to="-537562693#15" departLane="best" type="bus_bus"/>
    <trip id="bus47" depart="73.83" from="966725759" to="159607485#3" departLane="best" type="bus_bus"/>
    <trip id="bus48" depart="75.40" from="924761511" to="520721277#2" departLane="best" type="bus_bus"/>
    <trip id="bus49" depart="76.97" from="-151409219#6" to="173157368#1" departLane="best" type="bus_bus"/>
    <trip id="bus50" depart="78.54" from="173102099#1" to="159758960#0" departLane="best" type="bus_bus"/>
    <trip id="bus51" depart="80.11" from="-173163479#4" to="173075652#1" departLane="best" type="bus_bus"/>
    <trip id="bus52" depart="81.68" from="-160287939#0" to="-932496187" departLane="best" type="bus_bus"/>
    <trip id="bus53" depart="83.25" from="1163037325" to="782089242" departLane="best" type="bus_bus"/>
    <trip id="bus54" depart="84.82" from="520931497#0" to="-173163425#0" departLane="best" type="bus_bus" departSpeed="max"/>
    <trip id="bus55" depart="86.39" from="158257464#0" to="-173082235#0" departLane="best" type="bus_bus"/>
    <trip id="bus56" depart="87.96" from="546125775#0" to="533828799#2" departLane="best" type="bus_bus"/>
    <trip id="bus57" depart="89.53" from="-187678117#2" to="173075647#6" departLane="best" type="bus_bus" departSpeed="max"/>
    <trip id="bus58" depart="91.10" from="163294295#0" to="-173075651#18" departLane="best" type="bus_bus"/>
    <trip id="bus59" depart="92.68" from="173166185" to="159758965#2" departLane="best" type="bus_bus" departSpeed="max"/>
    <trip id="bus60" depart="94.25" from="185218766#0" to="159667516#0" departLane="best" type="bus_bus"/>
    <trip id="bus61" depart="95.82" from="-1041218832#15" to="-208937200" departLane="best" type="bus_bus"/>
    <trip id="bus62" depart="97.39" from="-157160843" to="647523021#0" departLane="best" type="bus_bus"/>
    <trip id="bus63" depart="98.96" from="532714429" to="385949130" departLane="best" type="bus_bus"/>
    <trip id="bus64" depart="100.53" from="-197203919" to="-159607441" departLane="best" type="bus_bus" departSpeed="max"/>
    <trip id="bus65" depart="102.10" from="532714422" to="657707371" departLane="best" type="bus_bus"/>
    <trip id="bus66" depart="103.67" from="-160056798" to="157940058#1" departLane="best" type="bus_bus"/>
    <trip id="bus67" depart="105.24" from="-159758960#0" to="173163548#2" departLane="best" type="bus_bus"/>
    <trip id="bus68" depart="106.81" from="182105801" to="-163294275" departLane="best" type="bus_bus" departSpeed="max"/>
    <trip id="bus69" depart="108.38" from="152906301#6" to="160056783#1" departLane="best" type="bus_bus"/>
    <trip id="bus70" depart="109.95" from="-173163457" to="533841385" departLane="best" type="bus_bus" departSpeed="max"/>
    <trip id="bus71" depart="111.52" from="-774862909" to="-173157311" departLane="best" type="bus_bus" departSpeed="max"/>
    <trip id="bus72" depart="113.10" from="159929385#6" to="173157415" departLane="best" type="bus_bus"/>
    <trip id="bus73" depart="114.67" from="-173082299#4" to="-196886529#1" departLane="best" type="bus_bus"/>
    <trip id="bus74" depart="116.24" from="964235203#2" to="173075799#0" departLane="best" type="bus_bus"/>
    <trip id="bus75" depart="117.81" from="-932924806#6" to="159598280#3" departLane="best" type="bus_bus"/>
    <trip id="bus76" depart="119.38" from="-160289221" to="-173157363#4" departLane="best" type="bus_bus" departSpeed="max"/>
    <trip id="bus77" depart="120.95" from="-387316755#0" to="160287946" departLane="best" type="bus_bus"/>
    <trip id="bus78" depart="122.52" from="-173157358" to="-173157351#0" departLane="best" type="bus_bus" departSpeed="max"/>
    <trip id="bus79" depart="124.09" from="-159758963#8" to="173075591" departLane="best" type="bus_bus"/>
    <trip id="bus80" depart="125.66" from="-173157348#1" to="546120056" departLane="best" type="bus_bus" departSpeed="max"/>
    <trip id="bus81" depart="127.23" from="470655976#0" to="-159758970#2" departLane="best" type="bus_bus"/>
    <trip id="bus82" depart="128.80" from="-173157393#1" to="173082214" departLane="best" type="bus_bus"/>
    <trip id="bus83" depart="130.37" from="-173102128#0" to="-163335418#4" departLane="best" type="bus_bus"/>
    <trip id="bus84" depart="131.94" from="647523019#1" to="160177460" departLane="best" type="bus_bus"/>
    <trip id="bus85" depart="133.52" from="151409219#18" to="185327129" departLane="best" type="bus_bus"/>
    <trip id="bus86" depart="135.09" from="197203904" to="-173082299#0" departLane="best" type="bus_bus" departSpeed="max"/>
    <trip id="bus87" depart="136.66" from="-160056873#1" to="-866642433" departLane="best" type="bus_bus"/>
    <trip id="bus88" depart="138.23" from="-780558588" to="1426337579#0" departLane="best" type="bus_bus"/>
    <trip id="bus89" depart="139.80" from="173159366" to="173082245#0" departLane="best" type="bus_bus" departSpeed="max"/>
    <trip id="bus90" depart="141.37" from="933990754#0" to="-160056875#5" departLane="best" type="bus_bus"/>
    <trip id="bus91" depart="142.94" from="-548425669#0" to="-313028517#0" departLane="best" type="bus_bus"/>
    <trip id="bus92" depart="144.51" from="479908533" to="-173159424#1" departLane="best" type="bus_bus"/>
    <trip id="bus93" depart="146.08" from="-173082247#0" to="-971835553" departLane="best" type="bus_bus"/>
    <trip id="bus94" depart="147.65" from="-695757830#0" to="-182105811#0" departLane="best" type="bus_bus"/>
    <trip id="bus95" depart="149.22" from="-173159404#0" to="599505132#3" departLane="best" type="bus_bus"/>
    <trip id="bus96" depart="150.79" from="-945646934" to="520723609#0" departLane="best" type="bus_bus" departSpeed="max"/>
    <trip id="bus97" depart="152.36" from="160056791#7" to="-159598289#2" departLane="best" type="bus_bus"/>
    <trip id="bus98" depart="153.94" from="971835553" to="387316767" departLane="best" type="bus_bus" departSpeed="max"/>
    <trip id="bus99" depart="155.51" from="924522549" to="644488893#17" departLane="best" type="bus_bus"/>
    <trip id="bus100" depart="157.08" from="385949103#0" to="-173075860" departLane="best" type="bus_bus"/>
    <trip id="bus101" depart="158.65" from="157161617#0" to="-173157316" departLane="best" type="bus_bus" departSpeed="max"/>
    <trip id="bus102" depart="160.22" from="-548425664#1" to="-159607442#3" departLane="best" type="bus_bus"/>
    <trip id="bus103" depart="161.79" from="-173163457" to="185327126" departLane="best" type="bus_bus" departSpeed="max"/>
    <trip id="bus104" depart="163.36" from="1180382523" to="-656303108#3" departLane="best" type="bus_bus"/>
    <trip id="bus105" depart="164.93" from="780579120" to="967742392" departLane="best" type="bus_bus"/>
    <trip id="bus106" depart="166.50" from="160056822" to="173157362#3" departLane="best" type="bus_bus"/>
    <trip id="bus107" depart="168.07" from="-173075631" to="-185327113" departLane="best" type="bus_bus" departSpeed="max"/>
    <trip id="bus108" depart="169.64" from="924522547" to="160177503#2" departLane="best" type="bus_bus"/>
    <trip id="bus109" depart="171.21" from="159929401#0" to="173163399#3" departLane="best" type="bus_bus"/>
    <trip id="bus110" depart="172.78" from="-159598312#7" to="160177520#1" departLane="best" type="bus_bus" departSpeed="max"/>
    <trip id="bus111" depart="174.36" from="158262260#1" to="520717405#0" departLane="best" type="bus_bus"/>
    <trip id="bus112" depart="175.93" from="-173075647#0" to="869115669" departLane="best" type="bus_bus"/>
    <trip id="bus113" depart="177.50" from="-160056780#5" to="-173082278#1" departLane="best" type="bus_bus"/>
    <trip id="bus114" depart="179.07" from="160289220#2" to="173082259#0" departLane="best" type="bus_bus"/>
    <trip id="bus115" depart="180.64" from="-173157375#0" to="-160289231#0" departLane="best" type="bus_bus"/>
    <trip id="bus116" depart="182.21" from="537562693#20" to="-173159398#4" departLane="best" type="bus_bus"/>
    <trip id="bus117" depart="183.78" from="160289210#0" to="173070186#2" departLane="best" type="bus_bus" departSpeed="max"/>
    <trip id="bus118" depart="185.35" from="-657707370" to="160177519#1" departLane="best" type="bus_bus" departSpeed="max"/>
    <trip id="bus119" depart="186.92" from="159603641#1" to="654022533" departLane="best" type="bus_bus"/>
    <trip id="bus120" depart="188.49" from="-173085064#2" to="173157355#1" departLane="best" type="bus_bus"/>
    <trip id="bus121" depart="190.06" from="-173157398#3" to="-544154870#0" departLane="best" type="bus_bus"/>
    <trip id="bus122" depart="191.63" from="173082284#1" to="-187566912#0" departLane="best" type="bus_bus"/>
    <trip id="bus123" depart="193.20" from="-311742796#2" to="173163419#1" departLane="best" type="bus_bus"/>
    <trip id="bus124" depart="194.78" from="-159758967#1" to="134667407#1" departLane="best" type="bus_bus" departSpeed="max"/>
    <trip id="bus125" depart="196.35" from="971029276#4" to="967810331#1" departLane="best" type="bus_bus"/>
    <trip id="bus126" depart="197.92" from="-159758969#1" to="-173157315#0" departLane="best" type="bus_bus"/>
    <trip id="bus127" depart="199.49" from="-173163457" to="652919170" departLane="best" type="bus_bus" departSpeed="max"/>
    <trip id="bus128" depart="201.06" from="532739707#0" to="537562693#5" departLane="best" type="bus_bus" departSpeed="max"/>
    <trip id="bus129" depart="202.63" from="-537562693#8" to="-173075699#0" departLane="best" type="bus_bus"/>
    <trip id="bus130" depart="204.20" from="315961620#1" to="173157285#0" departLane="best" type="bus_bus"/>
    <trip id="bus131" depart="205.77" from="163335438#0" to="937459265#4" departLane="best" type="bus_bus" departSpeed="max"/>
    <trip id="bus132" depart="207.34" from="173082176#6" to="-1390833001#2" departLane="best" type="bus_bus"/>
    <trip id="bus133" depart="208.91" from="208937211#0" to="-187566907" departLane="best" type="bus_bus" departSpeed="max"/>
    <trip id="bus134" depart="210.48" from="173082254#0" to="654320590#1" departLane="best" type="bus_bus"/>
    <trip id="bus135" depart="212.05" from="-163335426#0" to="-160289184" departLane="best" type="bus_bus"/>
    <trip id="bus136" depart="213.62" from="-160177504#1" to="160056791#6" departLane="best" type="bus_bus"/>
    <trip id="bus137" depart="215.20" from="-173163559#1" to="163291388#1" departLane="best" type="bus_bus"/>
    <trip id="bus138" depart="216.77" from="173157397" to="-173102119#0" departLane="best" type="bus_bus"/>
    <trip id="bus139" depart="218.34" from="173075652#13" to="-173163431#3" departLane="best" type="bus_bus"/>
    <trip id="bus140" depart="219.91" from="157940059#0" to="546120055" departLane="best" type="bus_bus"/>
    <trip id="bus141" depart="221.48" from="351190983#1" to="-160056851#0" departLane="best" type="bus_bus"/>
    <trip id="bus142" depart="223.05" from="-1174268134" to="182105828" departLane="best" type="bus_bus"/>
    <trip id="bus143" depart="224.62" from="173075674#0" to="-173163416#0" departLane="best" type="bus_bus"/>
    <trip id="bus144" depart="226.19" from="173159446#0" to="160056786#4" departLane="best" type="bus_bus"/>
    <trip id="bus145" depart="227.76" from="-869115671#0" to="-147022276#0" departLane="best" type="bus_bus"/>
    <trip id="bus146" depart="229.33" from="-159929398#1" to="537568172" departLane="best" type="bus_bus"/>
    <trip id="bus147" depart="230.90" from="315961621#0" to="160177516" departLane="best" type="bus_bus" departSpeed="max"/>
    <trip id="bus148" depart="232.47" from="-173075575" to="-163291394#7" departLane="best" type="bus_bus"/>
    <trip id="bus149" depart="234.04" from="-197423567#1" to="544139440" departLane="best" type="bus_bus" departSpeed="max"/>
    <trip id="bus150" depart="235.62" from="187735567" to="520721277#2" departLane="best" type="bus_bus" departSpeed="max"/>
    <trip id="bus151" depart="237.19" from="539081997#1" to="-173157295" departLane="best" type="bus_bus"/>
    <trip id="bus152" depart="238.76" from="-173159403#1" to="-160177470#0" departLane="best" type="bus_bus"/>
    <trip id="bus153" depart="240.33" from="185218773#0" to="537568173#19" departLane="best" type="bus_bus" departSpeed="max"/>
    <trip id="bus154" depart="241.90" from="-601848588#2" to="173070219#1" departLane="best" type="bus_bus"/>
    <trip id="bus155" depart="243.47" from="479908573#0" to="932653880#1" departLane="best" type="bus_bus"/>
    <trip id="bus156" depart="245.04" from="197423582#0" to="537568163#1" departLane="best" type="bus_bus"/>
    <trip id="bus157" depart="246.61" from="-157940058#1" to="173159394" departLane="best" type="bus_bus" departSpeed="max"/>
    <trip id="bus158" depart="248.18" from="-385949110#1" to="652483193#2" departLane="best" type="bus_bus" departSpeed="max"/>
    <trip id="bus159" depart="249.75" from="185327118#1" to="-160177503#0" departLane="best" type="bus_bus"/>
    <trip id="bus160" depart="251.32" from="-173157314" to="332464208#0" departLane="best" type="bus_bus"/>
    <trip id="bus161" depart="252.89" from="1340229636" to="-187678120" departLane="best" type="bus_bus"/>
    <trip id="bus162" depart="254.47" from="187735560" to="-173157372" departLane="best" type="bus_bus" departSpeed="max"/>
    <trip id="bus163" depart="256.04" from="-157940055#1" to="-173085064#1" departLane="best" type="bus_bus" departSpeed="max"/>
    <trip id="bus164" depart="257.61" from="-355519170#0" to="532700404#1" departLane="best" type="bus_bus"/>
    <trip id="bus165" depart="259.18" from="923985351" to="-182105811#0" departLane="best" type="bus_bus"/>
    <trip id="bus166" depart="260.75" from="173075799#4" to="-546120054#9" departLane="best" type="bus_bus"/>
    <trip id="bus167" depart="262.32" from="932924805#7" to="159758950" departLane="best" type="bus_bus"/>
    <trip id="bus168" depart="263.89" from="652531675#3" to="-160289177#1" departLane="best" type="bus_bus"/>
    <trip id="bus169" depart="265.46" from="924626944#0" to="-173082235#0" departLane="best" type="bus_bus"/>
    <trip id="bus170" depart="267.03" from="867681834" to="-173163507#1" departLane="best" type="bus_bus"/>
    <trip id="bus171" depart="268.60" from="-160177516" to="-924761512#3" departLane="best" type="bus_bus" departSpeed="max"/>
    <trip id="bus172" depart="270.17" from="163294275" to="158280248#2" departLane="best" type="bus_bus" departSpeed="max"/>
    <trip id="bus173" depart="271.74" from="-544147144#3" to="160177490#0" departLane="best" type="bus_bus"/>
    <trip id="bus174" depart="273.31" from="-173159449#0" to="173157320" departLane="best" type="bus_bus"/>
    <trip id="bus175" depart="274.89" from="-1056093805" to="644486337#1" departLane="best" type="bus_bus"/>
    <trip id="bus176" depart="276.46" from="159929385#0" to="173157363#2" departLane="best" type="bus_bus"/>
    <trip id="bus177" depart="278.03" from="173159449#2" to="173082221" departLane="best" type="bus_bus"/>
    <trip id="bus178" depart="279.60" from="-535822391#2" to="-159758966#1" departLane="best" type="bus_bus"/>
    <trip id="bus179" depart="281.17" from="173082258#1" to="-210485968#1" departLane="best" type="bus_bus"/>
    <trip id="bus180" depart="282.74" from="-217676886" to="479908566#1" departLane="best" type="bus_bus"/>
    <trip id="bus181" depart="284.31" from="173157402#1" to="-187566912#0" departLane="best" type="bus_bus"/>
    <trip id="bus182" depart="285.88" from="-208865750#1" to="-548422574" departLane="best" type="bus_bus"/>
    <trip id="bus183" depart="287.45" from="-548425668" to="-185327107" departLane="best" type="bus_bus" departSpeed="max"/>
    <trip id="bus184" depart="289.02" from="-163291391#3" to="-654290512#5" departLane="best" type="bus_bus"/>
    <trip id="bus185" depart="290.59" from="653481957" to="173082272#2" departLane="best" type="bus_bus" departSpeed="max"/>
    <trip id="bus186" depart="292.16" from="544131197#7" to="163335440" departLane="best" type="bus_bus"/>
    <trip id="bus187" depart="293.73" from="-196885601#7" to="160056777" departLane="best" type="bus_bus"/>
    <trip id="bus188" depart="295.31" from="-1041218832#11" to="-184496049#2" departLane="best" type="bus_bus"/>
    <trip id="bus189" depart="296.88" from="-932496187" to="160177505#1" departLane="best" type="bus_bus"/>
    <trip id="bus190" depart="298.45" from="173082191#1" to="1394190910#0" departLane="best" type="bus_bus"/>
    <trip id="bus191" depart="300.02" from="-945299996" to="-173157316" departLane="best" type="bus_bus" departSpeed="max"/>
    <trip id="bus192" depart="301.59" from="151409219#5" to="544154875" departLane="best" type="bus_bus"/>
    <trip id="bus193" depart="303.16" from="-160056792#2" to="158280262#3" departLane="best" type="bus_bus"/>
    <trip id="bus194" depart="304.73" from="173075651#5" to="-217676882" departLane="best" type="bus_bus"/>
    <trip id="bus195" depart="306.30" from="208937215#0" to="173163417#0" departLane="best" type="bus_bus" departSpeed="max"/>
    <trip id="bus196" depart="307.87" from="173082289#0" to="-173157363#3" departLane="best" type="bus_bus"/>
    <trip id="bus197" depart="309.44" from="-173082288#1" to="-157161617#1" departLane="best" type="bus_bus"/>
    <trip id="bus198" depart="311.01" from="-173159355#0" to="152906310" departLane="best" type="bus_bus"/>
    <trip id="bus199" depart="312.58" from="385949126#4" to="-159929396" departLane="best" type="bus_bus"/>
    <trip id="bus200" depart="314.15" from="-655789371" to="173075583#1" departLane="best" type="bus_bus"/>
    <trip id="bus201" depart="315.73" from="-173082274#0" to="173102115#2" departLane="best" type="bus_bus"/>
    <trip id="bus202" depart="317.30" from="158257423#0" to="-173159381" departLane="best" type="bus_bus"/>
    <trip id="bus203" depart="318.87" from="173082200#0" to="-127569065#2" departLane="best" type="bus_bus" departSpeed="max"/>
    <trip id="bus204" depart="320.44" from="173163425#0" to="182105822#15" departLane="best" type="bus_bus"/>
    <trip id="bus205" depart="322.01" from="-173075866#1" to="867681834" departLane="best" type="bus_bus"/>
    <trip id="bus206" depart="323.58" from="-173159398#10" to="479908566#3" departLane="best" type="bus_bus"/>
    <trip id="bus207" depart="325.15" from="1219934972" to="208937196#3" departLane="best" type="bus_bus"/>
    <trip id="bus208" depart="326.72" from="160289225" to="695757831#0" departLane="best" type="bus_bus"/>
    <trip id="bus209" depart="328.29" from="173157400#4" to="158262254#3" departLane="best" type="bus_bus"/>
    <trip id="bus210" depart="329.86" from="311742796#1" to="160056777" departLane="best" type="bus_bus"/>
    <trip id="bus211" depart="331.43" from="539081976" to="173159449#1" departLane="best" type="bus_bus"/>
    <trip id="bus212" depart="333.00" from="152906301#2" to="-173163399#2" departLane="best" type="bus_bus"/>
    <trip id="bus213" depart="334.57" from="-173159372" to="173075642#2" departLane="best" type="bus_bus" departSpeed="max"/>
    <trip id="bus214" depart="336.15" from="182105801" to="159598307#0" departLane="best" type="bus_bus" departSpeed="max"/>
    <trip id="bus215" depart="337.72" from="173075582" to="-173869737#5" departLane="best" type="bus_bus"/>
    <trip id="bus216" depart="339.29" from="-160056770" to="-182281152" departLane="best" type="bus_bus"/>
    <trip id="bus217" depart="340.86" from="159929392" to="-173070209" departLane="best" type="bus_bus"/>
    <trip id="bus218" depart="342.43" from="-173157362#10" to="173102104#0" departLane="best" type="bus_bus"/>
    <trip id="bus219" depart="344.00" from="173157359" to="-159667555#0" departLane="best" type="bus_bus" departSpeed="max"/>
    <trip id="bus220" depart="345.57" from="-649253776" to="159929388#0" departLane="best" type="bus_bus"/>
    <trip id="bus221" depart="347.14" from="-657337389#0" to="-173157279#0" departLane="best" type="bus_bus"/>
    <trip id="bus222" depart="348.71" from="-657707371" to="546120054#1" departLane="best" type="bus_bus" departSpeed="max"/>
    <trip id="bus223" depart="350.28" from="160177518#1" to="173102111#2" departLane="best" type="bus_bus"/>
    <trip id="bus224" depart="351.85" from="410045890#0" to="173869738#1" departLane="best" type="bus_bus" departSpeed="max"/>
    <trip id="bus225" depart="353.42" from="-544131185#1" to="-1312742789#1" departLane="best" type="bus_bus" departSpeed="max"/>
    <trip id="bus226" depart="354.99" from="-520721265#2" to="173163431#5" departLane="best" type="bus_bus"/>
    <trip id="bus227" depart="356.57" from="387316774" to="781835081" departLane="best" type="bus_bus"/>
    <trip id="bus228" depart="358.14" from="-657707370" to="173163399#3" departLane="best" type="bus_bus" departSpeed="max"/>
    <trip id="bus229" depart="359.71" from="160056781#0" to="160289268#1" departLane="best" type="bus_bus"/>
    <trip id="bus230" depart="361.28" from="-173157296#0" to="-173157345" departLane="best" type="bus_bus"/>
    <trip id="bus231" depart="362.85" from="-385949144#3" to="173082275#5" departLane="best" type="bus_bus"/>
    <trip id="bus232" depart="364.42" from="-548887982" to="-173075853#1" departLane="best" type="bus_bus" departSpeed="max"/>
    <trip id="bus233" depart="365.99" from="1410776028#4" to="-163291394#8" departLane="best" type="bus_bus"/>
    <trip id="bus234" depart="367.56" from="173075549#2" to="-157940059#1" departLane="best" type="bus_bus"/>
    <trip id="bus235" depart="369.13" from="-546230123#4" to="160056867#0" departLane="best" type="bus_bus" departSpeed="max"/>
    <trip id="bus236" depart="370.70" from="-157940066#0" to="173075666" departLane="best" type="bus_bus"/>
    <trip id="bus237" depart="372.27" from="-163335440" to="1390215293" departLane="best" type="bus_bus" departSpeed="max"/>
    <trip id="bus238" depart="373.84" from="-158280263#1" to="-535822396" departLane="best" type="bus_bus"/>
    <trip id="bus239" depart="375.41" from="-173102116#2" to="-208937214" departLane="best" type="bus_bus"/>
    <trip id="bus240" depart="376.99" from="173163574#1" to="-535822396" departLane="best" type="bus_bus"/>
    <trip id="bus241" depart="378.56" from="173163451#1" to="385949130" departLane="best" type="bus_bus"/>
    <trip id="bus242" depart="380.13" from="-173159435#1" to="-160056791#6" departLane="best" type="bus_bus"/>
    <trip id="bus243" depart="381.70" from="-157160632#2" to="159758965#3" departLane="best" type="bus_bus"/>
    <trip id="bus244" depart="383.27" from="992025211" to="-332465801#41" departLane="best" type="bus_bus"/>
    <trip id="bus245" depart="384.84" from="173075873#0" to="185327106#1" departLane="best" type="bus_bus"/>
    <trip id="bus246" depart="386.41" from="173075888#0" to="173163457" departLane="best" type="bus_bus"/>
    <trip id="bus247" depart="387.98" from="657337397" to="-173102103#2" departLane="best" type="bus_bus" departSpeed="max"/>
    <trip id="bus248" depart="389.55" from="-157161270#1" to="-173075651#10" departLane="best" type="bus_bus"/>
    <trip id="bus249" depart="391.12" from="-160289274#1" to="173082216#1" departLane="best" type="bus_bus"/>
    <trip id="bus250" depart="392.69" from="160056863#2" to="-173157331" departLane="best" type="bus_bus"/>
    <trip id="bus251" depart="394.26" from="173157323#1" to="182105797#0" departLane="best" type="bus_bus"/>
    <trip id="bus252" depart="395.83" from="-173075774" to="163291394#15" departLane="best" type="bus_bus"/>
    <trip id="bus253" depart="397.41" from="173163409" to="-160287962#2" departLane="best" type="bus_bus" departSpeed="max"/>
    <trip id="bus254" depart="398.98" from="208937216" to="924512580" departLane="best" type="bus_bus" departSpeed="max"/>
    <trip id="bus255" depart="400.55" from="-160177514#1" to="-157940044#1" departLane="best" type="bus_bus"/>