<?xml version="1.0" encoding="UTF-8"?>

<!-- generated on 2025-09-11 00:23:12.119178 by osmWebWizard.py UNKNOWN
<configuration>
    <net-file value="/home/pereira/2025-09-11-00-22-14/osm.net.xml.gz"/>
    <output-trip-file value="/home/pereira/2025-09-11-00-22-14/osm.motorcycle.trips.xml"/>
    <route-file value="/home/pereira/2025-09-11-00-22-14/osm.motorcycle.rou.xml"/>
    <prefix value="motorcycle"/>
    <trip-attributes value="departLane=&quot;best&quot;"/>
    <fringe-start-attributes value="departSpeed=&quot;max&quot;"/>
    <vehicle-class value="motorcycle"/>
    <fringe-factor value="2"/>
    <edge-permission value="motorcycle"/>
    <via-edge-types value="highway.motorway,highway.motorway_link,highway.trunk_link,highway.primary_link,highway.secondary_link,highway.tertiary_link"/>
    <seed value="43"/>
    <max-distance value="1200.0"/>
    <remove-loops value="True"/>
    <insertion-density value="4.0"/>
</configuration>
-->

<routes xmlns:xsi="http://www.w3.org/2001/XMLSchema-instance" xsi:noNamespaceSchemaLocation="http://sumo.dlr.de/xsd/routes_file.xsd">
    <vType id="motorcycle_motorcycle" vClass="motorcycle"/>
    <trip id="motorcycle0" depart="0.00" from="-537568168#0" to="515551630#0" departLane="best" type="motorcycle_motorcycle"/>
    <trip id="motorcycle1" depart="1.57" from="158280260" to="158257428#5" departLane="best" type="motorcycle_motorcycle"/>
    <trip id="motorcycle2" depart="3.14" from="182105812#1" to="160289205" departLane="best" type="motorcycle_motorcycle"/>
    <trip id="motorcycle3" depart="4.71" from="158280241" to="160177473" departLane="best" type="motorcycle_motorcycle"/>
    <trip id="motorcycle4" depart="6.28" from="544131197#1" to="-313850655#5" departLane="best" type="motorcycle_motorcycle"/>
    <trip id="motorcycle5" depart="7.86" from="-385949145#1" to="173157348#1" departLane="best" type="motorcycle_motorcycle" departSpeed="max"/>
    <trip id="motorcycle6" depart="9.43" from="-173082215#0" to="-173082176#8" departLane="best" type="motorcycle_motorcycle"/>
    <trip id="motorcycle7" depart="11.00" from="866913244" to="-173157321" departLane="best" type="motorcycle_motorcycle"/>
    <trip id="motorcycle8" depart="12.57" from="-173157313" to="1364505247" departLane="best" type="motorcycle_motorcycle"/>
    <trip id="motorcycle9" depart="14.14" from="520708772#7" to="745534177" departLane="best" type="motorcycle_motorcycle"/>
    <trip id="motorcycle10" depart="15.71" from="-173075621" to="-127569065#2" departLane="best" type="motorcycle_motorcycle"/>
    <trip id="motorcycle11" depart="17.28" from="173157285#1" to="-160289250#0" departLane="best" type="motorcycle_motorcycle"/>
    <trip id="motorcycle12" depart="18.85" from="156239301#0" to="-971029276#5" departLane="best" type="motorcycle_motorcycle"/>
    <trip id="motorcycle13" depart="20.42" from="-173102118#0" to="647523021#5" departLane="best" type="motorcycle_motorcycle"/>
    <trip id="motorcycle14" depart="21.99" from="173075668#1" to="332465801#1" departLane="best" type="motorcycle_motorcycle"/>
    <trip id="motorcycle15" depart="23.57" from="-160177483#5" to="537568163#0" departLane="best" type="motorcycle_motorcycle"/>
    <trip id="motorcycle16" depart="25.14" from="933975354#1" to="163294286" departLane="best" type="motorcycle_motorcycle"/>
    <trip id="motorcycle17" depart="26.71" from="173157413#1" to="159598275#1" departLane="best" type="motorcycle_motorcycle"/>
    <trip id="motorcycle18" depart="28.28" from="-535822395" to="185218779" departLane="best" type="motorcycle_motorcycle" departSpeed="max"/>
    <trip id="motorcycle19" depart="29.85" from="159607481#3" to="-158280255#1" departLane="best" type="motorcycle_motorcycle"/>
    <trip id="motorcycle20" depart="31.42" from="185327125" to="-173102133#1" departLane="best" type="motorcycle_motorcycle"/>
    <trip id="motorcycle21" depart="32.99" from="159598277#3" to="-163335402" departLane="best" type="motorcycle_motorcycle"/>
    <trip id="motorcycle22" depart="34.56" from="332465801#34" to="-196885601#7" departLane="best" type="motorcycle_motorcycle"/>
    <trip id="motorcycle23" depart="36.13" from="-173085068#3" to="173102119#4" departLane="best" type="motorcycle_motorcycle"/>
    <trip id="motorcycle24" depart="37.71" from="-173085067#0" to="520717406#6" departLane="best" type="motorcycle_motorcycle"/>
    <trip id="motorcycle25" depart="39.28" from="173070096#0" to="-173157427#1" departLane="best" type="motorcycle_motorcycle"/>
    <trip id="motorcycle26" depart="40.85" from="173082156#3" to="-173157329#5" departLane="best" type="motorcycle_motorcycle"/>
    <trip id="motorcycle27" depart="42.42" from="187566920" to="173075549#2" departLane="best" type="motorcycle_motorcycle" departSpeed="max"/>
    <trip id="motorcycle28" depart="43.99" from="173085038" to="-173085075#5" departLane="best" type="motorcycle_motorcycle"/>
    <trip id="motorcycle29" depart="45.56" from="-157161074#7" to="173157365#1" departLane="best" type="motorcycle_motorcycle"/>
    <trip id="motorcycle30" depart="47.13" from="-159598312#2" to="-869066541#1" departLane="best" type="motorcycle_motorcycle"/>
    <trip id="motorcycle31" depart="48.70" from="173075799#1" to="-187678112" departLane="best" type="motorcycle_motorcycle"/>
    <trip id="motorcycle32" depart="50.27" from="157160631#2" to="-173159439#1" departLane="best" type="motorcycle_motorcycle"/>
    <trip id="motorcycle33" depart="51.85" from="332465801#13" to="196932519#3" departLane="best" type="motorcycle_motorcycle"/>
    <trip id="motorcycle34" depart="53.42" from="159598289#0" to="158280253#2" departLane="best" type="motorcycle_motorcycle" departSpeed="max"/>
    <trip id="motorcycle35" depart="54.99" from="548425664#1" to="160177491#1" departLane="best" type="motorcycle_motorcycle"/>
    <trip id="motorcycle36" depart="56.56" from="173157391#0" to="-1390833001#4" departLane="best" type="motorcycle_motorcycle"/>
    <trip id="motorcycle37" depart="58.13" from="313156228" to="-520721256#1" departLane="best" type="motorcycle_motorcycle"/>
    <trip id="motorcycle38" depart="59.70" from="934394400" to="160287945#0" departLane="best" type="motorcycle_motorcycle" departSpeed="max"/>
    <trip id="motorcycle39" depart="61.27" from="173075660#1" to="-538799781#0" departLane="best" type="motorcycle_motorcycle"/>
    <trip id="motorcycle40" depart="62.84" from="-332465801#24" to="173075581#1" departLane="best" type="motorcycle_motorcycle"/>
    <trip id="motorcycle41" depart="64.41" from="-160177521#1" to="157161376" departLane="best" type="motorcycle_motorcycle"/>
    <trip id="motorcycle42" depart="65.98" from="160177510#2" to="-158257442#3" departLane="best" type="motorcycle_motorcycle"/>
    <trip id="motorcycle43" depart="67.56" from="-159598310" to="152906305#6" departLane="best" type="motorcycle_motorcycle" departSpeed="max"/>
    <trip id="motorcycle44" depart="69.13" from="-537568173#4" to="657337391" departLane="best" type="motorcycle_motorcycle"/>
    <trip id="motorcycle45" depart="70.70" from="-657707370" to="160056875#0" departLane="best" type="motorcycle_motorcycle" departSpeed="max"/>
    <trip id="motorcycle46" depart="72.27" from="-160056793#0" to="410045890#3" departLane="best" type="motorcycle_motorcycle"/>
    <trip id="motorcycle47" depart="73.84" from="196932515" to="173159378" departLane="best" type="motorcycle_motorcycle"/>
    <trip id="motorcycle48" depart="75.41" from="160056774#0" to="-160287960#2" departLane="best" type="motorcycle_motorcycle" departSpeed="max"/>
    <trip id="motorcycle49" depart="76.98" from="185327129" to="387316728#6" departLane="best" type="motorcycle_motorcycle"/>
    <trip id="motorcycle50" depart="78.55" from="-173157325" to="535822391#2" departLane="best" type="motorcycle_motorcycle" departSpeed="max"/>
    <trip id="motorcycle51" depart="80.12" from="173070186#0" to="-520721268#2" departLane="best" type="motorcycle_motorcycle"/>
    <trip id="motorcycle52" depart="81.70" from="537562699#0" to="654299082#1" departLane="best" type="motorcycle_motorcycle"/>
    <trip id="motorcycle53" depart="83.27" from="-967728692#2" to="160289254#0" departLane="best" type="motorcycle_motorcycle"/>
    <trip id="motorcycle54" depart="84.84" from="-1056093801#1" to="160056873#2" departLane="best" type="motorcycle_motorcycle"/>
    <trip id="motorcycle55" depart="86.41" from="866901643" to="-173075583#0" departLane="best" type="motorcycle_motorcycle"/>
    <trip id="motorcycle56" depart="87.98" from="157940062#1" to="158280262#4" departLane="best" type="motorcycle_motorcycle"/>
    <trip id="motorcycle57" depart="89.55" from="173082226" to="-173869738#0" departLane="best" type="motorcycle_motorcycle"/>
    <trip id="motorcycle58" depart="91.12" from="163291394#16" to="932566961#0" departLane="best" type="motorcycle_motorcycle"/>
    <trip id="motorcycle59" depart="92.69" from="-173082275#5" to="351190983#1" departLane="best" type="motorcycle_motorcycle"/>
    <trip id="motorcycle60" depart="94.26" from="173082245#0" to="185327114" departLane="best" type="motorcycle_motorcycle"/>
    <trip id="motorcycle61" depart="95.84" from="-158280243#4" to="-152906301#2" departLane="best" type="motorcycle_motorcycle"/>
    <trip id="motorcycle62" depart="97.41" from="182105830#3" to="-173157345" departLane="best" type="motorcycle_motorcycle"/>
    <trip id="motorcycle63" depart="98.98" from="332465801#41" to="173075831#1" departLane="best" type="motorcycle_motorcycle"/>
    <trip id="motorcycle64" depart="100.55" from="-160287939#1" to="-315961605#5" departLane="best" type="motorcycle_motorcycle"/>
    <trip id="motorcycle65" depart="102.12" from="160177508#2" to="924761512#1" departLane="best" type="motorcycle_motorcycle"/>
    <trip id="motorcycle66" depart="103.69" from="479908573#0" to="-197310657#1" departLane="best" type="motorcycle_motorcycle"/>
    <trip id="motorcycle67" depart="105.26" from="173159442" to="173163393#0" departLane="best" type="motorcycle_motorcycle"/>
    <trip id="motorcycle68" depart="106.83" from="-159758963#2" to="-157940071#0" departLane="best" type="motorcycle_motorcycle"/>
    <trip id="motorcycle69" depart="108.40" from="173085075#10" to="173163538#2" departLane="best" type="motorcycle_motorcycle"/>
    <trip id="motorcycle70" depart="109.97" from="196932499#0" to="332465801#9" departLane="best" type="motorcycle_motorcycle" departSpeed="max"/>
    <trip id="motorcycle71" depart="111.55" from="-320788136#10" to="-160056791#5" departLane="best" type="motorcycle_motorcycle"/>
    <trip id="motorcycle72" depart="113.12" from="-173163559#0" to="173075591" departLane="best" type="motorcycle_motorcycle"/>
    <trip id="motorcycle73" depart="114.69" from="159758947#5" to="-217676886" departLane="best" type="motorcycle_motorcycle"/>
    <trip id="motorcycle74" depart="116.26" from="-160056799" to="-173157282#1" departLane="best" type="motorcycle_motorcycle"/>
    <trip id="motorcycle75" depart="117.83" from="533808015#0" to="-971029276#9" departLane="best" type="motorcycle_motorcycle"/>
    <trip id="motorcycle76" depart="119.40" from="-173082261#4" to="-173869738#11" departLane="best" type="motorcycle_motorcycle"/>
    <trip id="motorcycle77" depart="120.97" from="-173085062#1" to="-944331823#0" departLane="best" type="motorcycle_motorcycle"/>
    <trip id="motorcycle78" depart="122.54" from="-160056776#5" to="-160056789#1" departLane="best" type="motorcycle_motorcycle"/>
    <trip id="motorcycle79" depart="124.11" from="601840839" to="158280253#2" departLane="best" type="motorcycle_motorcycle"/>
    <trip id="motorcycle80" depart="125.69" from="-158280255#0" to="-160177463" departLane="best" type="motorcycle_motorcycle"/>
    <trip id="motorcycle81" depart="127.26" from="197046403" to="-173159455#0" departLane="best" type="motorcycle_motorcycle"/>
    <trip id="motorcycle82" depart="128.83" from="-159929385#5" to="158262247#4" departLane="best" type="motorcycle_motorcycle"/>
    <trip id="motorcycle83" depart="130.40" from="159758948#1" to="-152906304#3" departLane="best" type="motorcycle_motorcycle"/>
    <trip id="motorcycle84" depart="131.97" from="173159446#0" to="353547031#3" departLane="best" type="motorcycle_motorcycle"/>
    <trip id="motorcycle85" depart="133.54" from="-1359806285" to="-159758944#1" departLane="best" type="motorcycle_motorcycle"/>
    <trip id="motorcycle86" depart="135.11" from="-173082289#1" to="173082283#0" departLane="best" type="motorcycle_motorcycle"/>
    <trip id="motorcycle87" depart="136.68" from="173157348#0" to="546120060" departLane="best" type="motorcycle_motorcycle"/>
    <trip id="motorcycle88" depart="138.25" from="173157287" to="157164666#5" departLane="best" type="motorcycle_motorcycle"/>
    <trip id="motorcycle89" depart="139.83" from="-520721252" to="-173075647#6" departLane="best" type="motorcycle_motorcycle" departSpeed="max"/>
    <trip id="motorcycle90" depart="141.40" from="173085052#0" to="173102101" departLane="best" type="motorcycle_motorcycle"/>
    <trip id="motorcycle91" depart="142.97" from="-156190341#2" to="1306079761" departLane="best" type="motorcycle_motorcycle"/>
    <trip id="motorcycle92" depart="144.54" from="-160177454" to="320367319#0" departLane="best" type="motorcycle_motorcycle" departSpeed="max"/>
    <trip id="motorcycle93" depart="146.11" from="-521024477" to="-173163570#1" departLane="best" type="motorcycle_motorcycle"/>
    <trip id="motorcycle94" depart="147.68" from="-182105816#1" to="160056863#3" departLane="best" type="motorcycle_motorcycle" departSpeed="max"/>
    <trip id="motorcycle95" depart="149.25" from="173075651#18" to="-173075812#3" departLane="best" type="motorcycle_motorcycle"/>
    <trip id="motorcycle96" depart="150.82" from="-547779814#4" to="-173157288#0" departLane="best" type="motorcycle_motorcycle"/>
    <trip id="motorcycle97" depart="152.39" from="-537562693#21" to="-182105822#4" departLane="best" type="motorcycle_motorcycle"/>
    <trip id="motorcycle98" depart="153.96" from="-332465801#38" to="-173102132#0" departLane="best" type="motorcycle_motorcycle"/>
    <trip id="motorcycle99" depart="155.54" from="173157400#0" to="-173082236#1" departLane="best" type="motorcycle_motorcycle" departSpeed="max"/>
    <trip id="motorcycle100" depart="157.11" from="486645602#0" to="-537562693#21" departLane="best" type="motorcycle_motorcycle" departSpeed="max"/>
    <trip id="motorcycle101" depart="158.68" from="134667407#2" to="160056868#0" departLane="best" type="motorcycle_motorcycle"/>
    <trip id="motorcycle102" depart="160.25" from="-173070126" to="173085072" departLane="best" type="motorcycle_motorcycle"/>
    <trip id="motorcycle103" depart="161.82" from="-657337391" to="-160056850#0" departLane="best" type="motorcycle_motorcycle" departSpeed="max"/>
    <trip id="motorcycle104" depart="163.39" from="173075868#2" to="173082217#0" departLane="best" type="motorcycle_motorcycle"/>
    <trip id="motorcycle105" depart="164.96" from="-173082182#1" to="-173157329#1" departLane="best" type="motorcycle_motorcycle"/>
    <trip id="motorcycle106" depart="166.53" from="173159360" to="-944331823#1" departLane="best" type="motorcycle_motorcycle" departSpeed="max"/>
    <trip id="motorcycle107" depart="168.10" from="-537562693#20" to="655721965" departLane="best" type="motorcycle_motorcycle"/>
    <trip id="motorcycle108" depart="169.68" from="-160289192#2" to="160289249" departLane="best" type="motorcycle_motorcycle"/>
    <trip id="motorcycle109" depart="171.25" from="173082288#2" to="-173157343" departLane="best" type="motorcycle_motorcycle"/>
    <trip id="motorcycle110" depart="172.82" from="-652483193#9" to="387316751#1" departLane="best" type="motorcycle_motorcycle"/>
    <trip id="motorcycle111" depart="174.39" from="160177515#2" to="-932645049" departLane="best" type="motorcycle_motorcycle"/>
    <trip id="motorcycle112" depart="175.96" from="160287962#0" to="160056791#0" departLane="best" type="motorcycle_motorcycle"/>
    <trip id="motorcycle113" depart="177.53" from="182105822#12" to="537562693#6" departLane="best" type="motorcycle_motorcycle"/>
    <trip id="motorcycle114" depart="179.10" from="-173082272#2" to="-187566913#0" departLane="best" type="motorcycle_motorcycle"/>
    <trip id="motorcycle115" depart="180.67" from="-173075651#8" to="173075604" departLane="best" type="motorcycle_motorcycle"/>
    <trip id="motorcycle116" depart="182.24" from="320367321#1" to="-320367319#0" departLane="best" type="motorcycle_motorcycle"/>
    <trip id="motorcycle117" depart="183.82" from="182281151#0" to="-163335402" departLane="best" type="motorcycle_motorcycle" departSpeed="max"/>
    <trip id="motorcycle118" depart="185.39" from="-173163519#0" to="196932505#1" departLane="best" type="motorcycle_motorcycle"/>
    <trip id="motorcycle119" depart="186.96" from="520721277#3" to="-173075668#1" departLane="best" type="motorcycle_motorcycle"/>
    <trip id="motorcycle120" depart="188.53" from="-173082275#3" to="546320792#1" departLane="best" type="motorcycle_motorcycle"/>
    <trip id="motorcycle121" depart="190.10" from="160056877#1" to="160056786#6" departLane="best" type="motorcycle_motorcycle"/>
    <trip id="motorcycle122" depart="191.67" from="-160289220#2" to="313850653#0" departLane="best" type="motorcycle_motorcycle"/>
    <trip id="motorcycle123" depart="193.24" from="151409219#6" to="157940044#0" departLane="best" type="motorcycle_motorcycle"/>
    <trip id="motorcycle124" depart="194.81" from="159667516#0" to="182105822#15" departLane="best" type="motorcycle_motorcycle"/>
    <trip id="motorcycle125" depart="196.38" from="1041218832#9" to="-173102106#2" departLane="best" type="motorcycle_motorcycle"/>
    <trip id="motorcycle126" depart="197.95" from="932924805#7" to="544131197#4" departLane="best" type="motorcycle_motorcycle"/>
    <trip id="motorcycle127" depart="199.53" from="-332465801#36" to="187566912#2" departLane="best" type="motorcycle_motorcycle"/>
    <trip id="motorcycle128" depart="201.10" from="159758947#3" to="-158257418#1" departLane="best" type="motorcycle_motorcycle"/>
    <trip id="motorcycle129" depart="202.67" from="-544147145#1" to="-151409219#7" departLane="best" type="motorcycle_motorcycle"/>
    <trip id="motorcycle130" depart="204.24" from="-1148514484#3" to="-159758946#3" departLane="best" type="motorcycle_motorcycle"/>
    <trip id="motorcycle131" depart="205.81" from="160177479#1" to="544131202#0" departLane="best" type="motorcycle_motorcycle"/>
    <trip id="motorcycle132" depart="207.38" from="547779814#2" to="-547779814#3" departLane="best" type="motorcycle_motorcycle"/>
    <trip id="motorcycle133" depart="208.95" from="-173070219#0" to="-173075668#0" departLane="best" type="motorcycle_motorcycle"/>
    <trip id="motorcycle134" depart="210.52" from="-157161074#3" to="-1001201950#0" departLane="best" type="motorcycle_motorcycle"/>
    <trip id="motorcycle135" depart="212.09" from="173157289#3" to="173102091#3" departLane="best" type="motorcycle_motorcycle"/>
    <trip id="motorcycle136" depart="213.67" from="156239235#5" to="173157363#9" departLane="best" type="motorcycle_motorcycle"/>
    <trip id="motorcycle137" depart="215.24" from="353547031#5" to="173082216#1" departLane="best" type="motorcycle_motorcycle"/>
    <trip id="motorcycle138" depart="216.81" from="933975354#2" to="158257464#0" departLane="best" type="motorcycle_motorcycle"/>
    <trip id="motorcycle139" depart="218.38" from="-173082258#1" to="-173157362#9" departLane="best" type="motorcycle_motorcycle"/>
    <trip id="motorcycle140" depart="219.95" from="159607487#1" to="539082000#0" departLane="best" type="motorcycle_motorcycle"/>
    <trip id="motorcycle141" depart="221.52" from="-173157286" to="-547779814#0" departLane="best" type="motorcycle_motorcycle"/>
    <trip id="motorcycle142" depart="223.09" from="173102125#0" to="173157308" departLane="best" type="motorcycle_motorcycle"/>
    <trip id="motorcycle143" depart="224.66" from="173157401#1" to="-173157302" departLane="best" type="motorcycle_motorcycle"/>
    <trip id="motorcycle144" depart="226.23" from="-163335440" to="544139428#1" departLane="best" type="motorcycle_motorcycle" departSpeed="max"/>
    <trip id="motorcycle145" depart="227.81" from="-173075831#4" to="173082235#0" departLane="best" type="motorcycle_motorcycle"/>
    <trip id="motorcycle146" depart="229.38" from="160177510#0" to="-147022276#1" departLane="best" type="motorcycle_motorcycle"/>
    <trip id="motorcycle147" depart="230.95" from="-532739715" to="-173157365#0" departLane="best" type="motorcycle_motorcycle"/>
    <trip id="motorcycle148" depart="232.52" from="-160056829#2" to="-320788130#4" departLane="best" type="motorcycle_motorcycle"/>
    <trip id="motorcycle149" depart="234.09" from="-173163416#1" to="173075738" departLane="best" type="motorcycle_motorcycle"/>
    <trip id="motorcycle150" depart="235.66" from="160177463" to="160287927#0" departLane="best" type="motorcycle_motorcycle"/>
    <trip id="motorcycle151" depart="237.23" from="158280243#0" to="159758970#1" departLane="best" type="motorcycle_motorcycle"/>
    <trip id="motorcycle152" depart="238.80" from="1426337579#0" to="-160056801#1" departLane="best" type="motorcycle_motorcycle"/>
    <trip id="motorcycle153" depart="240.37" from="-544139437" to="932552512" departLane="best" type="motorcycle_motorcycle" departSpeed="max"/>
    <trip id="motorcycle154" depart="241.94" from="173159420#0" to="470655979#2" departLane="best" type="motorcycle_motorcycle" departSpeed="max"/>
    <trip id="motorcycle155" depart="243.52" from="932924634" to="-933975354#1" departLane="best" type="motorcycle_motorcycle" departSpeed="max"/>
    <trip id="motorcycle156" depart="245.09" from="-187678116#1" to="-173075651#1" departLane="best" type="motorcycle_motorcycle" departSpeed="max"/>
    <trip id="motorcycle157" depart="246.66" from="182105845#0" to="-182105828" departLane="best" type="motorcycle_motorcycle"/>
    <trip id="motorcycle158" depart="248.23" from="-1041218832#7" to="1041218832#12" departLane="best" type="motorcycle_motorcycle"/>
    <trip id="motorcycle159" depart="249.80" from="158257430#1" to="159758946#4" departLane="best" type="motorcycle_motorcycle"/>
    <trip id="motorcycle160" depart="251.37" from="-160056863#4" to="160056822" departLane="best" type="motorcycle_motorcycle"/>
    <trip id="motorcycle161" depart="252.94" from="160177450#2" to="657337391" departLane="best" type="motorcycle_motorcycle"/>
    <trip id="motorcycle162" depart="254.51" from="173157355#1" to="-159603641#2" departLane="best" type="motorcycle_motorcycle"/>
    <trip id="motorcycle163" depart="256.08" from="160177449#0" to="160289250#1" departLane="best" type="motorcycle_motorcycle"/>
    <trip id="motorcycle164" depart="257.66" from="-173159414#0" to="173102099#1" departLane="best" type="motorcycle_motorcycle"/>
    <trip id="motorcycle165" depart="259.23" from="866642433" to="-187566914" departLane="best" type="motorcycle_motorcycle"/>
    <trip id="motorcycle166" depart="260.80" from="-533140901" to="-320788136#2" departLane="best" type="motorcycle_motorcycle" departSpeed="max"/>
    <trip id="motorcycle167" depart="262.37" from="-173075562#0" to="-173082176#0" departLane="best" type="motorcycle_motorcycle"/>
    <trip id="motorcycle168" depart="263.94" from="-932918003" to="-158257411#9" departLane="best" type="motorcycle_motorcycle" departSpeed="max"/>
    <trip id="motorcycle169" depart="265.51" from="546102319#1" to="-546320792#8" departLane="best" type="motorcycle_motorcycle"/>
    <trip id="motorcycle170" depart="267.08" from="-182105830#1" to="182105819#0" departLane="best" type="motorcycle_motorcycle"/>
    <trip id="motorcycle171" depart="268.65" from="-173159372" to="173163398" departLane="best" type="motorcycle_motorcycle" departSpeed="max"/>
    <trip id="motorcycle172" depart="270.22" from="945545654#2" to="-163294284" departLane="best" type="motorcycle_motorcycle"/>
    <trip id="motorcycle173" depart="271.80" from="-173075651#16" to="-173075874#1" departLane="best" type="motorcycle_motorcycle"/>
    <trip id="motorcycle174" depart="273.37" from="160289210#0" to="159758961#0" departLane="best" type="motorcycle_motorcycle" departSpeed="max"/>
    <trip id="motorcycle175" depart="274.94" from="548788523#0" to="-173163407#0" departLane="best" type="motorcycle_motorcycle" departSpeed="max"/>
    <trip id="motorcycle176" depart="276.51" from="548731030" to="173075738" departLane="best" type="motorcycle_motorcycle"/>
    <trip id="motorcycle177" depart="278.08" from="173082246#0" to="173157397" departLane="best" type="motorcycle_motorcycle"/>
    <trip id="motorcycle178" depart="279.65" from="647523021#5" to="532714426#0" departLane="best" type="motorcycle_motorcycle"/>
    <trip id="motorcycle179" depart="281.22" from="-163291394#15" to="-163335433#9" departLane="best" type="motorcycle_motorcycle"/>
    <trip id="motorcycle180" depart="282.79" from="-173075711" to="-332465801#49" departLane="best" type="motorcycle_motorcycle"/>
    <trip id="motorcycle181" depart="284.36" from="-173869738#3" to="173085075#10" departLane="best" type="motorcycle_motorcycle"/>
    <trip id="motorcycle182" depart="285.93" from="173157362#5" to="-160289274#1" departLane="best" type="motorcycle_motorcycle"/>
    <trip id="motorcycle183" depart="287.51" from="163291394#16" to="-163291394#1" departLane="best" type="motorcycle_motorcycle"/>
    <trip id="motorcycle184" depart="289.08" from="-173075853#2" to="332465801#44" departLane="best" type="motorcycle_motorcycle"/>
    <trip id="motorcycle185" depart="290.65" from="868953499#0" to="160177503#0" departLane="best" type="motorcycle_motorcycle"/>
    <trip id="motorcycle186" depart="292.22" from="173085075#4" to="-187678114#1" departLane="best" type="motorcycle_motorcycle"/>
    <trip id="motorcycle187" depart="293.79" from="185327108" to="-173157400#0" departLane="best" type="motorcycle_motorcycle"/>
    <trip id="motorcycle188" depart="295.36" from="-173102111#3" to="173082156#3" departLane="best" type="motorcycle_motorcycle"/>
    <trip id="motorcycle189" depart="296.93" from="173159450#1" to="-197203911#4" departLane="best" type="motorcycle_motorcycle"/>
    <trip id="motorcycle190" depart="298.50" from="-182105818" to="-182105830#0" departLane="best" type="motorcycle_motorcycle"/>
    <trip id="motorcycle191" depart="300.07" from="173082275#0" to="173082222" departLane="best" type="motorcycle_motorcycle"/>
    <trip id="motorcycle192" depart="301.65" from="160056793#1" to="904903226" departLane="best" type="motorcycle_motorcycle"/>
    <trip id="motorcycle193" depart="303.22" from="173102100" to="-196932508" departLane="best" type="motorcycle_motorcycle"/>
    <trip id="motorcycle194" depart="304.79" from="147022276#3" to="-208937200" departLane="best" type="motorcycle_motorcycle"/>
    <trip id="motorcycle195" depart="306.36" from="-548425668" to="-147416053#1" departLane="best" type="motorcycle_motorcycle" departSpeed="max"/>
    <trip id="motorcycle196" depart="307.93" from="-173082180" to="-520721277#2" departLane="best" type="motorcycle_motorcycle" departSpeed="max"/>
    <trip id="motorcycle197" depart="309.50" from="160177495#1" to="533836345" departLane="best" type="motorcycle_motorcycle"/>
    <trip id="motorcycle198" depart="311.07" from="-532739715" to="-532734645#0" departLane="best" type="motorcycle_motorcycle"/>
    <trip id="motorcycle199" depart="312.64" from="217677876#0" to="158280255#0" departLane="best" type="motorcycle_motorcycle"/>
    <trip id="motorcycle200" depart="314.21" from="-173082176#9" to="676700614" departLane="best" type="motorcycle_motorcycle"/>
    <trip id="motorcycle201" depart="315.79" from="185218782" to="-173070146#1" departLane="best" type="motorcycle_motorcycle"/>
    <trip id="motorcycle202" depart="317.36" from="320788136#8" to="151409219#13" departLane="best" type="motorcycle_motorcycle"/>
    <trip id="motorcycle203" depart="318.93" from="-163291394#10" to="-159758946#3" departLane="best" type="motorcycle_motorcycle"/>
    <trip id="motorcycle204" depart="320.50" from="-210485968#2" to="158280251#1" departLane="best" type="motorcycle_motorcycle"/>
    <trip id="motorcycle205" depart="322.07" from="539081997#1" to="-159598301#0" departLane="best" type="motorcycle_motorcycle"/>
    <trip id="motorcycle206" depart="323.64" from="-537568162" to="210485992#0" departLane="best" type="motorcycle_motorcycle"/>
    <trip id="motorcycle207" depart="325.21" from="-173159364" to="-173157345" departLane="best" type="motorcycle_motorcycle"/>
    <trip id="motorcycle208" depart="326.78" from="-160177500#1" to="320368975" departLane="best" type="motorcycle_motorcycle"/>
    <trip id="motorcycle209" depart="328.35" from="-159598312#7" to="-182281151#1" departLane="best" type="motorcycle_motorcycle" departSpeed="max"/>
    <trip id="motorcycle210" depart="329.92" from="159603619#1" to="924571936" departLane="best" type="motorcycle_motorcycle"/>
    <trip id="motorcycle211" depart="331.50" from="173075731" to="647523016#2" departLane="best" type="motorcycle_motorcycle"/>
    <trip id="motorcycle212" depart="333.07" from="173075846" to="-173070201#0" departLane="best" type="motorcycle_motorcycle"/>
    <trip id="motorcycle213" depart="334.64" from="-537562693#9" to="-387316712" departLane="best" type="motorcycle_motorcycle"/>
    <trip id="motorcycle214" depart="336.21" from="-173102129#2" to="-173075831#0" departLane="best" type="motorcycle_motorcycle" departSpeed="max"/>
    <trip id="motorcycle215" depart="337.78" from="-173102129#1" to="-187678112" departLane="best" type="motorcycle_motorcycle"/>