<?xml version="1.0" encoding="UTF-8"?>

<!-- generated on 2025-09-11 00:25:35.545307 by osmWebWizard.py UNKNOWN
<configuration>
    <net-file value="/home/pereira/2025-09-11-00-22-14/osm.net.xml.gz"/>
    <output-trip-file value="/home/pereira/2025-09-11-00-22-14/osm.truck.trips.xml"/>
    <route-file value="/home/pereira/2025-09-11-00-22-14/osm.truck.rou.xml"/>
    <prefix value="truck"/>
    <trip-attributes value="departLane=&quot;best&quot;"/>
    <fringe-start-attributes value="departSpeed=&quot;max&quot;"/>
    <vehicle-class value="truck"/>
    <fringe-factor value="5"/>
    <edge-permission value="truck"/>
    <via-edge-types value="highway.motorway,highway.motorway_link,highway.trunk_link,highway.primary_link,highway.secondary_link,highway.tertiary_link"/>
    <seed value="46"/>
    <min-distance value="600.0"/>
    <min-distance.fringe value="10.0"/>
    <remove-loops value="True"/>
    <insertion-density value="8.0"/>
</configuration>
-->

<routes xmlns:xsi="http://www.w3.org/2001/XMLSchema-instance" xsi:noNamespaceSchemaLocation="http://sumo.dlr.de/xsd/routes_file.xsd">
    <vType id="truck_truck" vClass="truck"/>
    <trip id="truck0" depart="0.00" from="537562678" to="-546120060" departLane="best" type="truck_truck"/>
    <trip id="truck1" depart="0.79" from="160287946" to="520721274#1" departLane="best" type="truck_truck"/>
    <trip id="truck2" depart="1.57" from="-173157348#1" to="158280262#5" departLane="best" type="truck_truck" departSpeed="max"/>
    <trip id="truck3" depart="2.36" from="160177518#0" to="657757848#1" departLane="best" type="truck_truck" departSpeed="max"/>
    <trip id="truck4" depart="3.14" from="-158257423#3" to="-159758963#7" departLane="best" type="truck_truck"/>
    <trip id="truck5" depart="3.93" from="-319268123#4" to="385947794#1" departLane="best" type="truck_truck"/>
    <trip id="truck6" depart="4.71" from="547781602#0" to="159607469#0" departLane="best" type="truck_truck"/>
    <trip id="truck7" depart="5.50" from="924512579" to="653481953" departLane="best" type="truck_truck"/>
    <trip id="truck8" depart="6.28" from="152906318#2" to="-173075662#1" departLane="best" type="truck_truck"/>
    <trip id="truck9" depart="7.07" from="1390833008#1" to="-159929400#2" departLane="best" type="truck_truck"/>
    <trip id="truck10" depart="7.86" from="173163414#1" to="159929400#3" departLane="best" type="truck_truck"/>
    <trip id="truck11" depart="8.64" from="-160177519#3" to="-173157368#1" departLane="best" type="truck_truck" departSpeed="max"/>
    <trip id="truck12" depart="9.43" from="158280247#1" to="185218769#3" departLane="best" type="truck_truck"/>
    <trip id="truck13" depart="10.21" from="-173869738#0" to="-160177491#0" departLane="best" type="truck_truck"/>
    <trip id="truck14" depart="11.00" from="-520931497#1" to="-159758963#8" departLane="best" type="truck_truck" departSpeed="max"/>
    <trip id="truck15" depart="11.78" from="-385949131#12" to="533830425" departLane="best" type="truck_truck" departSpeed="max"/>
    <trip id="truck16" depart="12.57" from="-173082191#1" to="-187566914" departLane="best" type="truck_truck"/>
    <trip id="truck17" depart="13.35" from="182105847#1" to="-173102119#1" departLane="best" type="truck_truck"/>
    <trip id="truck18" depart="14.14" from="-160289169" to="-173159420#0" departLane="best" type="truck_truck"/>
    <trip id="truck19" depart="14.93" from="163335418#3" to="173157329#9" departLane="best" type="truck_truck"/>
    <trip id="truck20" depart="15.71" from="173085064#0" to="-159758944#1" departLane="best" type="truck_truck"/>
    <trip id="truck21" depart="16.50" from="-182105847#1" to="-160289192#0" departLane="best" type="truck_truck"/>
    <trip id="truck22" depart="17.28" from="160056846" to="-520721248#6" departLane="best" type="truck_truck" departSpeed="max"/>
    <trip id="truck23" depart="18.07" from="173163427#0" to="160177452#3" departLane="best" type="truck_truck"/>
    <trip id="truck24" depart="18.85" from="160177510#2" to="-173082156#3" departLane="best" type="truck_truck"/>
    <trip id="truck25" depart="19.64" from="159929401#5" to="-159758947#2" departLane="best" type="truck_truck"/>
    <trip id="truck26" depart="20.42" from="-160177460" to="520721260#1" departLane="best" type="truck_truck" departSpeed="max"/>
    <trip id="truck27" depart="21.21" from="-173075853#3" to="-1041218832#4" departLane="best" type="truck_truck"/>
    <trip id="truck28" depart="21.99" from="173157388#3" to="-173082276#1" departLane="best" type="truck_truck"/>
    <trip id="truck29" depart="22.78" from="-196885601#6" to="160177479#0" departLane="best" type="truck_truck"/>
    <trip id="truck30" depart="23.57" from="653481957" to="-157161074#1" departLane="best" type="truck_truck" departSpeed="max"/>
    <trip id="truck31" depart="24.35" from="173075868#0" to="-158257430#0" departLane="best" type="truck_truck" departSpeed="max"/>
    <trip id="truck32" depart="25.14" from="184496039" to="-520721248#10" departLane="best" type="truck_truck"/>
    <trip id="truck33" depart="25.92" from="-160056799" to="-544131190#1" departLane="best" type="truck_truck"/>
    <trip id="truck34" depart="26.71" from="173075882#0" to="-173070120" departLane="best" type="truck_truck"/>
    <trip id="truck35" depart="27.49" from="-544131189" to="185218783#0" departLane="best" type="truck_truck" departSpeed="max"/>
    <trip id="truck36" depart="28.28" from="210485949" to="173157404#0" departLane="best" type="truck_truck" departSpeed="max"/>
    <trip id="truck37" depart="29.06" from="147416053#2" to="173157291#0" departLane="best" type="truck_truck"/>
    <trip id="truck38" depart="29.85" from="-173075583#2" to="-537562693#7" departLane="best" type="truck_truck" departSpeed="max"/>
    <trip id="truck39" depart="30.64" from="-210485968#1" to="-163335418#0" departLane="best" type="truck_truck"/>
    <trip id="truck40" depart="31.42" from="-158262254#3" to="-159598301#0" departLane="best" type="truck_truck"/>
    <trip id="truck41" depart="32.21" from="932640557#0" to="-533828806#2" departLane="best" type="truck_truck"/>
    <trip id="truck42" depart="32.99" from="173159354#0" to="544139435" departLane="best" type="truck_truck"/>
    <trip id="truck43" depart="33.78" from="546120056" to="-159603631" departLane="best" type="truck_truck"/>
    <trip id="truck44" depart="34.56" from="-173159372" to="-539081991#2" departLane="best" type="truck_truck" departSpeed="max"/>
    <trip id="truck45" depart="35.35" from="-197203910" to="160056808" departLane="best" type="truck_truck"/>
    <trip id="truck46" depart="36.13" from="-173157406#2" to="544139438" departLane="best" type="truck_truck"/>
    <trip id="truck47" depart="36.92" from="-355519170#0" to="544131197#3" departLane="best" type="truck_truck"/>
    <trip id="truck48" depart="37.71" from="593952278#0" to="173075886#0" departLane="best" type="truck_truck"/>
    <trip id="truck49" depart="38.49" from="-173163559#1" to="-159603620#1" departLane="best" type="truck_truck"/>
    <trip id="truck50" depart="39.28" from="157940064#1" to="-159607485#0" departLane="best" type="truck_truck"/>
    <trip id="truck51" depart="40.06" from="173163585#0" to="-185218784" departLane="best" type="truck_truck"/>
    <trip id="truck52" depart="40.85" from="546860543" to="479908566#2" departLane="best" type="truck_truck"/>
    <trip id="truck53" depart="41.63" from="-159929389" to="173075831#3" departLane="best" type="truck_truck"/>
    <trip id="truck54" depart="42.42" from="163291394#5" to="173157358" departLane="best" type="truck_truck"/>
    <trip id="truck55" depart="43.20" from="-152906318#1" to="546860543" departLane="best" type="truck_truck"/>
    <trip id="truck56" depart="43.99" from="-173075802" to="-1041218833" departLane="best" type="truck_truck" departSpeed="max"/>
    <trip id="truck57" depart="44.78" from="173082216#0" to="173159398#1" departLane="best" type="truck_truck" departSpeed="max"/>
    <trip id="truck58" depart="45.56" from="173157398#0" to="-160056830#4" departLane="best" type="truck_truck"/>
    <trip id="truck59" depart="46.35" from="163291395#0" to="173159424#2" departLane="best" type="truck_truck"/>
    <trip id="truck60" depart="47.13" from="-152906307#0" to="173075848#1" departLane="best" type="truck_truck"/>
    <trip id="truck61" depart="47.92" from="-173102126#0" to="-315961620#5" departLane="best" type="truck_truck"/>
    <trip id="truck62" depart="48.70" from="-173075637" to="158257428#6" departLane="best" type="truck_truck" departSpeed="max"/>
    <trip id="truck63" depart="49.49" from="-173159449#3" to="173075562#0" departLane="best" type="truck_truck"/>
    <trip id="truck64" depart="50.27" from="-184496042" to="-160289223#1" departLane="best" type="truck_truck" departSpeed="max"/>
    <trip id="truck65" depart="51.06" from="-385949101" to="-185327113" departLane="best" type="truck_truck" departSpeed="max"/>
    <trip id="truck66" depart="51.85" from="-187566913#0" to="966725763#0" departLane="best" type="truck_truck"/>
    <trip id="truck67" depart="52.63" from="160289171#0" to="532700404#1" departLane="best" type="truck_truck"/>
    <trip id="truck68" depart="53.42" from="173075812#4" to="934025821" departLane="best" type="truck_truck"/>
    <trip id="truck69" depart="54.20" from="-173163549" to="-173159359#2" departLane="best" type="truck_truck"/>
    <trip id="truck70" depart="54.99" from="544154872#1" to="157161290" departLane="best" type="truck_truck"/>
    <trip id="truck71" depart="55.77" from="173082182#0" to="652483197" departLane="best" type="truck_truck"/>
    <trip id="truck72" depart="56.56" from="159667532#1" to="-173082243" departLane="best" type="truck_truck"/>
    <trip id="truck73" depart="57.34" from="173157362#10" to="197046403" departLane="best" type="truck_truck"/>
    <trip id="truck74" depart="58.13" from="647523019#1" to="-868948007" departLane="best" type="truck_truck"/>
    <trip id="truck75" depart="58.92" from="-160289268#1" to="173082284#0" departLane="best" type="truck_truck"/>
    <trip id="truck76" depart="59.70" from="187566907" to="-158280249#1" departLane="best" type="truck_truck" departSpeed="max"/>
    <trip id="truck77" depart="60.49" from="208865750#1" to="387316777#6" departLane="best" type="truck_truck"/>
    <trip id="truck78" depart="61.27" from="-159758958" to="173070146#1" departLane="best" type="truck_truck"/>
    <trip id="truck79" depart="62.06" from="-160177503#2" to="159598285" departLane="best" type="truck_truck" departSpeed="max"/>
    <trip id="truck80" depart="62.84" from="-182105816#1" to="157940066#0" departLane="best" type="truck_truck" departSpeed="max"/>
    <trip id="truck81" depart="63.63" from="173075536#1" to="185327115" departLane="best" type="truck_truck"/>
    <trip id="truck82" depart="64.41" from="-385949108" to="-654086670" departLane="best" type="truck_truck" departSpeed="max"/>
    <trip id="truck83" depart="65.20" from="-479908534#1" to="-173102133#1" departLane="best" type="truck_truck"/>
    <trip id="truck84" depart="65.98" from="932935939" to="-332465801#4" departLane="best" type="truck_truck"/>
    <trip id="truck85" depart="66.77" from="-1056093801#1" to="-173159398#4" departLane="best" type="truck_truck"/>
    <trip id="truck86" depart="67.56" from="182105845#0" to="173157375#0" departLane="best" type="truck_truck"/>
    <trip id="truck87" depart="68.34" from="151409219#15" to="-159598275#1" departLane="best" type="truck_truck"/>
    <trip id="truck88" depart="69.13" from="-385949144#3" to="547462757" departLane="best" type="truck_truck"/>
    <trip id="truck89" depart="69.91" from="-173070219#2" to="-160056851#0" departLane="best" type="truck_truck"/>
    <trip id="truck90" depart="70.70" from="1144993963#1" to="-156239479#1" departLane="best" type="truck_truck"/>
    <trip id="truck91" depart="71.48" from="546120059#1" to="385949109" departLane="best" type="truck_truck"/>
    <trip id="truck92" depart="72.27" from="-173075642#3" to="535822395" departLane="best" type="truck_truck" departSpeed="max"/>
    <trip id="truck93" depart="73.05" from="932918000" to="173869738#2" departLane="best" type="truck_truck"/>
    <trip id="truck94" depart="73.84" from="182281150" to="-160289228#1" departLane="best" type="truck_truck" departSpeed="max"/>
    <trip id="truck95" depart="74.63" from="-173157391#0" to="152906308#0" departLane="best" type="truck_truck"/>
    <trip id="truck96" depart="75.41" from="-173082218#0" to="387316751#1" departLane="best" type="truck_truck"/>
    <trip id="truck97" depart="76.20" from="-546120054#1" to="173075674#0" departLane="best" type="truck_truck"/>
    <trip id="truck98" depart="76.98" from="-546860537#1" to="932553920" departLane="best" type="truck_truck"/>
    <trip id="truck99" depart="77.77" from="-332465801#20" to="520721277#0" departLane="best" type="truck_truck"/>
    <trip id="truck100" depart="78.55" from="520721262#0" to="173075613" departLane="best" type="truck_truck" departSpeed="max"/>
    <trip id="truck101" depart="79.34" from="-159929385#0" to="654089031#0" departLane="best" type="truck_truck"/>
    <trip id="truck102" depart="80.12" from="-173075799#0" to="-160056789#1" departLane="best" type="truck_truck"/>
    <trip id="truck103" depart="80.91" from="387316797#1" to="-173082272#2" departLane="best" type="truck_truck"/>
    <trip id="truck104" depart="81.70" from="-158257423#5" to="532739707#1" departLane="best" type="truck_truck"/>
    <trip id="truck105" depart="82.48" from="548440006" to="-332465801#29" departLane="best" type="truck_truck"/>
    <trip id="truck106" depart="83.27" from="173159355#3" to="-182281149" departLane="best" type="truck_truck"/>
    <trip id="truck107" depart="84.05" from="-159603628" to="-163294278" departLane="best" type="truck_truck" departSpeed="max"/>
    <trip id="truck108" depart="84.84" from="-173163563#1" to="-156238379#0" departLane="best" type="truck_truck"/>
    <trip id="truck109" depart="85.62" from="173159366" to="-537562693#8" departLane="best" type="truck_truck" departSpeed="max"/>
    <trip id="truck110" depart="86.41" from="159758961#1" to="-173159438" departLane="best" type="truck_truck"/>
    <trip id="truck111" depart="87.19" from="-539081991#0" to="173102133#1" departLane="best" type="truck_truck"/>
    <trip id="truck112" depart="87.98" from="532714427#1" to="385949114" departLane="best" type="truck_truck"/>
    <trip id="truck113" depart="88.77" from="158280266" to="470655946#1" departLane="best" type="truck_truck" departSpeed="max"/>
    <trip id="truck114" depart="89.55" from="-184496042" to="544131197#4" departLane="best" type="truck_truck" departSpeed="max"/>
    <trip id="truck115" depart="90.34" from="-546120054#2" to="-158257463#1" departLane="best" type="truck_truck"/>
    <trip id="truck116" depart="91.12" from="182105845#2" to="-173075621" departLane="best" type="truck_truck"/>
    <trip id="truck117" depart="91.91" from="387316760#0" to="385949109" departLane="best" type="truck_truck"/>
    <trip id="truck118" depart="92.69" from="520931497#0" to="-159603605" departLane="best" type="truck_truck" departSpeed="max"/>
    <trip id="truck119" depart="93.48" from="-197423582#0" to="-158280261#1" departLane="best" type="truck_truck"/>
    <trip id="truck120" depart="94.26" from="-158257430#2" to="-924522548#1" departLane="best" type="truck_truck"/>
    <trip id="truck121" depart="95.05" from="160289210#0" to="-158257451#1" departLane="best" type="truck_truck" departSpeed="max"/>
    <trip id="truck122" depart="95.84" from="-173070219#0" to="173075593" departLane="best" type="truck_truck"/>
    <trip id="truck123" depart="96.62" from="-932630552#1" to="-479908565" departLane="best" type="truck_truck"/>
    <trip id="truck124" depart="97.41" from="695757831#0" to="160177487#4" departLane="best" type="truck_truck"/>
    <trip id="truck125" depart="98.19" from="-537568164" to="159929398#6" departLane="best" type="truck_truck" departSpeed="max"/>
    <trip id="truck126" depart="98.98" from="649253776" to="-173075851#0" departLane="best" type="truck_truck"/>
    <trip id="truck127" depart="99.76" from="173102118#3" to="780935699" departLane="best" type="truck_truck"/>
    <trip id="truck128" depart="100.55" from="173082281" to="-160177496" departLane="best" type="truck_truck" departSpeed="max"/>
    <trip id="truck129" depart="101.33" from="187735558" to="159598311#1" departLane="best" type="truck_truck" departSpeed="max"/>
    <trip id="truck130" depart="102.12" from="-173082215#1" to="173157286" departLane="best" type="truck_truck"/>
    <trip id="truck131" depart="102.91" from="520997989#0" to="173159352#0" departLane="best" type="truck_truck"/>
    <trip id="truck132" depart="103.69" from="720036802#0" to="-173075651#12" departLane="best" type="truck_truck" departSpeed="max"/>
    <trip id="truck133" depart="104.48" from="971835553" to="520931497#1" departLane="best" type="truck_truck" departSpeed="max"/>
    <trip id="truck134" depart="105.26" from="-520931497#1" to="159758960#1" departLane="best" type="truck_truck" departSpeed="max"/>
    <trip id="truck135" depart="106.05" from="319268123#5" to="173163419#1" departLane="best" type="truck_truck"/>
    <trip id="truck136" depart="106.83" from="158280261#0" to="-173085070#4" departLane="best" type="truck_truck"/>
    <trip id="truck137" depart="107.62" from="520721274#0" to="-173159408" departLane="best" type="truck_truck"/>
    <trip id="truck138" depart="108.40" from="-159598280#3" to="-657414949#4" departLane="best" type="truck_truck"/>
    <trip id="truck139" depart="109.19" from="163294284" to="653152261" departLane="best" type="truck_truck" departSpeed="max"/>
    <trip id="truck140" depart="109.97" from="546102319#1" to="160056838#1" departLane="best" type="truck_truck"/>
    <trip id="truck141" depart="110.76" from="-182105822#15" to="196885601#12" departLane="best" type="truck_truck"/>
    <trip id="truck142" depart="111.55" from="1146737644" to="163291394#4" departLane="best" type="truck_truck"/>
    <trip id="truck143" depart="112.33" from="-665917832" to="160177459" departLane="best" type="truck_truck" departSpeed="max"/>
    <trip id="truck144" depart="113.12" from="184496049#5" to="546860535" departLane="best" type="truck_truck"/>
    <trip id="truck145" depart="113.90" from="160060807" to="-173070260" departLane="best" type="truck_truck" departSpeed="max"/>
    <trip id="truck146" depart="114.69" from="932630552#0" to="208865752" departLane="best" type="truck_truck"/>
    <trip id="truck147" depart="115.47" from="152906301#5" to="158280230#0" departLane="best" type="truck_truck"/>
    <trip id="truck148" depart="116.26" from="866901643" to="-159598311#2" departLane="best" type="truck_truck"/>
    <trip id="truck149" depart="117.04" from="173075830#1" to="158257430#4" departLane="best" type="truck_truck"/>
    <trip id="truck150" depart="117.83" from="935471437" to="-173082215#1" departLane="best" type="truck_truck" departSpeed="max"/>
    <trip id="truck151" depart="118.62" from="548425664#1" to="-173082268#2" departLane="best" type="truck_truck"/>
    <trip id="truck152" depart="119.40" from="-533801444" to="520717405#0" departLane="best" type="truck_truck"/>
    <trip id="truck153" depart="120.19" from="-546860539#1" to="-173102106#2" departLane="best" type="truck_truck"/>
    <trip id="truck154" depart="120.97" from="-185327118#0" to="-971835553" departLane="best" type="truck_truck"/>
    <trip id="truck155" depart="121.76" from="-160177519#3" to="921782517" departLane="best" type="truck_truck" departSpeed="max"/>
    <trip id="truck156" depart="122.54" from="158257418#3" to="-217676882" departLane="best" type="truck_truck"/>
    <trip id="truck157" depart="123.33" from="173157431#0" to="160177470#1" departLane="best" type="truck_truck" departSpeed="max"/>
    <trip id="truck158" depart="124.11" from="-182105822#1" to="944331823#1" departLane="best" type="truck_truck"/>
    <trip id="truck159" depart="124.90" from="173082275#4" to="-217675052" departLane="best" type="truck_truck"/>
    <trip id="truck160" depart="125.69" from="934341960" to="173157344#1" departLane="best" type="truck_truck"/>
    <trip id="truck161" depart="126.47" from="-173157328#1" to="520708772#4" departLane="best" type="truck_truck"/>
    <trip id="truck162" depart="127.26" from="158280259#0" to="-173159369" departLane="best" type="truck_truck"/>
    <trip id="truck163" depart="128.04" from="-173075614" to="173157327#0" departLane="best" type="truck_truck" departSpeed="max"/>
    <trip id="truck164" depart="128.83" from="157164666#5" to="-173102117#0" departLane="best" type="truck_truck"/>
    <trip id="truck165" depart="129.61" from="158257442#0" to="-157940053#1" departLane="best" type="truck_truck"/>
    <trip id="truck166" depart="130.40" from="1414956596" to="-158257407" departLane="best" type="truck_truck" departSpeed="max"/>
    <trip id="truck167" depart="131.18" from="-656303108#1" to="-157940045#4" departLane="best" type="truck_truck"/>
    <trip id="truck168" depart="131.97" from="217677878" to="173869736#0" departLane="best" type="truck_truck"/>
    <trip id="truck169" depart="132.76" from="-163291394#16" to="868953499#1" departLane="best" type="truck_truck"/>
    <trip id="truck170" depart="133.54" from="208937200" to="-173082217#1" departLane="best" type="truck_truck" departSpeed="max"/>
    <trip id="truck171" depart="134.33" from="147215682" to="160287948#0" departLane="best" type="truck_truck"/>
    <trip id="truck172" depart="135.11" from="537562693#16" to="-173075804" departLane="best" type="truck_truck"/>
    <trip id="truck173" depart="135.90" from="187678111#1" to="-653481957" departLane="best" type="truck_truck"/>
    <trip id="truck174" depart="136.68" from="-160056769#3" to="-187566913#1" departLane="best" type="truck_truck"/>
    <trip id="truck175" depart="137.47" from="-173075887#2" to="544131188" departLane="best" type="truck_truck"/>
    <trip id="truck176" depart="138.25" from="520708772#4" to="-160177502#1" departLane="best" type="truck_truck"/>
    <trip id="truck177" depart="139.04" from="869066541#0" to="173163459" departLane="best" type="truck_truck"/>
    <trip id="truck178" depart="139.83" from="185204959#0" to="210485981#0" departLane="best" type="truck_truck"/>
    <trip id="truck179" depart="140.61" from="217675048" to="548422573#3" departLane="best" type="truck_truck"/>
    <trip id="truck180" depart="141.40" from="159598307#0" to="719473884" departLane="best" type="truck_truck"/>
    <trip id="truck181" depart="142.18" from="869066541#1" to="537568165" departLane="best" type="truck_truck"/>
    <trip id="truck182" depart="142.97" from="-187678114#2" to="537562693#19" departLane="best" type="truck_truck"/>
    <trip id="truck183" depart="143.75" from="159929400#1" to="-548788523#3" departLane="best" type="truck_truck"/>
    <trip id="truck184" depart="144.54" from="537568163#0" to="-163335417#0" departLane="best" type="truck_truck"/>
    <trip id="truck185" depart="145.32" from="1390833001#0" to="-173157365#0" departLane="best" type="truck_truck"/>
    <trip id="truck186" depart="146.11" from="532734641#2" to="945646934" departLane="best" type="truck_truck"/>
    <trip id="truck187" depart="146.90" from="173159449#1" to="173157288#1" departLane="best" type="truck_truck"/>
    <trip id="truck188" depart="147.68" from="173070146#0" to="-593952278#2" departLane="best" type="truck_truck" departSpeed="max"/>
    <trip id="truck189" depart="148.47" from="159598275#0" to="173082176#0" departLane="best" type="truck_truck"/>
    <trip id="truck190" depart="149.25" from="544163213" to="-160289171#1" departLane="best" type="truck_truck" departSpeed="max"/>
    <trip id="truck191" depart="150.04" from="158280247#1" to="-163291394#11" departLane="best" type="truck_truck"/>
    <trip id="truck192" depart="150.82" from="-173157375#1" to="385949145#0" departLane="best" type="truck_truck"/>
    <trip id="truck193" depart="151.61" from="173157312#0" to="-160287941" departLane="best" type="truck_truck" departSpeed="max"/>
    <trip id="truck194" depart="152.39" from="173082235#0" to="-160056769#3" departLane="best" type="truck_truck"/>
    <trip id="truck195" depart="153.18" from="-158257435" to="520721256#0" departLane="best" type="truck_truck" departSpeed="max"/>
    <trip id="truck196" depart="153.96" from="173082176#1" to="158280249#4" departLane="best" type="truck_truck"/>
    <trip id="truck197" depart="154.75" from="932602856" to="163291394#7" departLane="best" type="truck_truck"/>
    <trip id="truck198" depart="155.54" from="173075662#1" to="-654290512#2" departLane="best" type="truck_truck"/>
    <trip id="truck199" depart="156.32" from="173075667#1" to="657337391" departLane="best" type="truck_truck"/>
    <trip id="truck200" depart="157.11" from="173163390#1" to="187678116#1" departLane="best" type="truck_truck"/>
    <trip id="truck201" depart="157.89" from="944954056" to="921021083" departLane="best" type="truck_truck"/>
    <trip id="truck202" depart="158.68" from="-173157361#3" to="385949108" departLane="best" type="truck_truck"/>
    <trip id="truck203" depart="159.46" from="952474636" to="173075739#0" departLane="best" type="truck_truck" departSpeed="max"/>
    <trip id="truck204" depart="160.25" from="-160056818#1" to="546132094" departLane="best" type="truck_truck"/>
    <trip id="truck205" depart="161.03" from="-160056844#0" to="159758948#0" departLane="best" type="truck_truck"/>
    <trip id="truck206" depart="161.82" from="539081997#0" to="163335426#0" departLane="best" type="truck_truck"/>
    <trip id="truck207" depart="162.61" from="-173082275#4" to="173157355#1" departLane="best" type="truck_truck"/>
    <trip id="truck208" depart="163.39" from="173159360" to="533696168" departLane="best" type="truck_truck" departSpeed="max"/>
    <trip id="truck209" depart="164.18" from="-173102118#0" to="665917832" departLane="best" type="truck_truck"/>
    <trip id="truck210" depart="164.96" from="185218785" to="-163291391#2" departLane="best" type="truck_truck" departSpeed="max"/>
    <trip id="truck211" depart="165.75" from="-160056819" to="-1171494273" departLane="best" type="truck_truck"/>
    <trip id="truck212" depart="166.53" from="173157362#1" to="-185327107" departLane="best" type="truck_truck"/>
    <trip id="truck213" depart="167.32" from="-866928905#1" to="173163413#0" departLane="best" type="truck_truck"/>
    <trip id="truck214" depart="168.10" from="-544131189" to="-173163404#2" departLane="best" type="truck_truck" departSpeed="max"/>
    <trip id="truck215" depart="168.89" from="-385949108" to="-548422572" departLane="best" type="truck_truck" departSpeed="max"/>
    <trip id="truck216" depart="169.68" from="173159356#0" to="157940071#5" departLane="best" type="truck_truck"/>
    <trip id="truck217" depart="170.46" from="-537568173#9" to="738406937" departLane="best" type="truck_truck"/>
    <trip id="truck218" depart="171.25" from="-654022533" to="-385949126#4" departLane="best" type="truck_truck" departSpeed="max"/>
    <trip id="truck219" depart="172.03" from="173157363#3" to="-544139429#0" departLane="best" type="truck_truck"/>
    <trip id="truck220" depart="172.82" from="173082217#0" to="945299997" departLane="best" type="truck_truck"/>
    <trip id="truck221" depart="173.60" from="-173102113#1" to="520721265#0" departLane="best" type="truck_truck"/>
    <trip id="truck222" depart="174.39" from="163335438#0" to="-601848600#1" departLane="best" type="truck_truck" departSpeed="max"/>
    <trip id="truck223" depart="175.17" from="-173075769" to="520721265#0" departLane="best" type="truck_truck"/>
    <trip id="truck224" depart="175.96" from="-657414947" to="548422573#7" departLane="best" type="truck_truck"/>
    <trip id="truck225" depart="176.75" from="516450573#1" to="-160056783#1" departLane="best" type="truck_truck"/>
    <trip id="truck226" depart="177.53" from="173082275#3" to="-654290512#3" departLane="best" type="truck_truck"/>
    <trip id="truck227" depart="178.32" from="160056832#2" to="-159598299#0" departLane="best" type="truck_truck"/>
    <trip id="truck228" depart="179.10" from="-173082278#0" to="-1173593835" departLane="best" type="truck_truck"/>
    <trip id="truck229" depart="179.89" from="-160060783" to="185218772#1" departLane="best" type="truck_truck"/>
    <trip id="truck230" depart="180.67" from="-332465801#30" to="-385947795#0" departLane="best" type="truck_truck"/>
    <trip id="truck231" depart="181.46" from="313028517#0" to="-173157282#1" departLane="best" type="truck_truck" departSpeed="max"/>
    <trip id="truck232" depart="182.24" from="932552023" to="-159607453" departLane="best" type="truck_truck"/>
    <trip id="truck233" depart="183.03" from="-158257430#3" to="173157295" departLane="best" type="truck_truck"/>
    <trip id="truck234" depart="183.82" from="-226640219#7" to="657337402#1" departLane="best" type="truck_truck"/>
    <trip id="truck235" depart="184.60" from="160056867#0" to="-159598278#0" departLane="best" type="truck_truck"/>
    <trip id="truck236" depart="185.39" from="173075886#0" to="470655946#1" departLane="best" type="truck_truck"/>
    <trip id="truck237" depart="186.17" from="923985351" to="657337391" departLane="best" type="truck_truck"/>
    <trip id="truck238" depart="186.96" from="-157940070#2" to="185327106#0" departLane="best" type="truck_truck"/>
    <trip id="truck239" depart="187.74" from="-544139437" to="-217676882" departLane="best" type="truck_truck" departSpeed="max"/>
    <trip id="truck240" depart="188.53" from="-313850655#0" to="-173159408" departLane="best" type="truck_truck"/>
    <trip id="truck241" depart="189.31" from="217675048" to="151409219#13" departLane="best" type="truck_truck"/>
    <trip id="truck242" depart="190.10" from="173082282#0" to="-163291394#14" departLane="best" type="truck_truck"/>
    <trip id="truck243" depart="190.89" from="173075760#0" to="173163399#0" departLane="best" type="truck_truck"/>