<?xml version="1.0" encoding="UTF-8"?>
<net version="1.3" xmlns:xsi="http://www.w3.org/2001/XMLSchema-instance" xsi:noNamespaceSchemaLocation="http://sumo.dlr.de/xsd/net_file.xsd">
    <location netOffset="0.00,0.00" convBoundary="0.00,0.00,400.00,400.00" origBoundary="0.00,0.00,400.00,400.00" projParameter="!"/>
    
    <junction id="A0" x="0.00" y="0.00" type="priority"/>
    <junction id="A1" x="0.00" y="200.00" type="priority"/>
    <junction id="A2" x="0.00" y="400.00" type="priority"/>
    
    <junction id="B0" x="200.00" y="0.00" type="traffic_light"/>
    <junction id="B1" x="200.00" y="200.00" type="traffic_light"/> <junction id="B2" x="200.00" y="400.00" type="traffic_light"/>
    
    <junction id="C0" x="400.00" y="0.00" type="priority"/>
    <junction id="C1" x="400.00" y="200.00" type="priority"/>
    <junction id="C2" x="400.00" y="400.00" type="priority"/>
    
    <edge id="A0B0" from="A0" to="B0" priority="1"><lane id="A0B0_0" index="0" speed="13.89" length="200.00" shape="0.00,0.00 200.00,0.00"/></edge>
    <edge id="B0A0" from="B0" to="A0" priority="1"><lane id="B0A0_0" index="0" speed="13.89" length="200.00" shape="200.00,0.00 0.00,0.00"/></edge>
    <edge id="B0C0" from="B0" to="C0" priority="1"><lane id="B0C0_0" index="0" speed="13.89" length="200.00" shape="200.00,0.00 400.00,0.00"/></edge>
    <edge id="C0B0" from="C0" to="B0" priority="1"><lane id="C0B0_0" index="0" speed="13.89" length="200.00" shape="400.00,0.00 200.00,0.00"/></edge>
    
    <edge id="A1B1" from="A1" to="B1" priority="1"><lane id="A1B1_0" index="0" speed="13.89" length="200.00" shape="0.00,200.00 200.00,200.00"/></edge>
    <edge id="B1A1" from="B1" to="A1" priority="1"><lane id="B1A1_0" index="0" speed="13.89" length="200.00" shape="200.00,200.00 0.00,200.00"/></edge>
    <edge id="B1C1" from="B1" to="C1" priority="1"><lane id="B1C1_0" index="0" speed="13.89" length="200.00" shape="200.00,200.00 400.00,200.00"/></edge>
    <edge id="C1B1" from="C1" to="B1" priority="1"><lane id="C1B1_0" index="0" speed="13.89" length="200.00" shape="400.00,200.00 200.00,200.00"/></edge>

    <edge id="A2B2" from="A2" to="B2" priority="1"><lane id="A2B2_0" index="0" speed="13.89" length="200.00" shape="0.00,400.00 200.00,400.00"/></edge>
    <edge id="B2A2" from="B2" to="A2" priority="1"><lane id="B2A2_0" index="0" speed="13.89" length="200.00" shape="200.00,400.00 0.00,400.00"/></edge>
    <edge id="B2C2" from="B2" to="C2" priority="1"><lane id="B2C2_0" index="0" speed="13.89" length="200.00" shape="200.00,400.00 400.00,400.00"/></edge>
    <edge id="C2B2" from="C2" to="B2" priority="1"><lane id="C2B2_0" index="0" speed="13.89" length="200.00" shape="400.00,400.00 200.00,400.00"/></edge>
    
    <edge id="A0A1" from="A0" to="A1" priority="1"><lane id="A0A1_0" index="0" speed="13.89" length="200.00" shape="0.00,0.00 0.00,200.00"/></edge>
    <edge id="A1A0" from="A1" to="A0" priority="1"><lane id="A1A0_0" index="0" speed="13.89" length="200.00" shape="0.00,200.00 0.00,0.00"/></edge>
    <edge id="A1A2" from="A1" to="A2" priority="1"><lane id="A1A2_0" index="0" speed="13.89" length="200.00" shape="0.00,200.00 0.00,400.00"/></edge>
    <edge id="A2A1" from="A2" to="A1" priority="1"><lane id="A2A1_0" index="0" speed="13.89" length="200.00" shape="0.00,400.00 0.00,200.00"/></edge>
    
    <edge id="B0B1" from="B0" to="B1" priority="1"><lane id="B0B1_0" index="0" speed="13.89" length="200.00" shape="200.00,0.00 200.00,200.00"/></edge>
    <edge id="B1B0" from="B1" to="B0" priority="1"><lane id="B1B0_0" index="0" speed="13.89" length="200.00" shape="200.00,200.00 200.00,0.00"/></edge>
    <edge id="B1B2" from="B1" to="B2" priority="1"><lane id="B1B2_0" index="0" speed="13.89" length="200.00" shape="200.00,200.00 200.00,400.00"/></edge>
    <edge id="B2B1" from="B2" to="B1" priority="1"><lane id="B2B1_0" index="0" speed="13.89" length="200.00" shape="200.00,400.00 200.00,200.00"/></edge>
    
    <edge id="C0C1" from="C0" to="C1" priority="1"><lane id="C0C1_0" index="0" speed="13.89" length="200.00" shape="400.00,0.00 400.00,200.00"/></edge>
    <edge id="C1C0" from="C1" to="C0" priority="1"><lane id="C1C0_0" index="0" speed="13.89" length="200.00" shape="400.00,200.00 400.00,0.00"/></edge>
    <edge id="C1C2" from="C1" to="C2" priority="1"><lane id="C1C2_0" index="0" speed="13.89" length="200.00" shape="400.00,200.00 400.00,400.00"/></edge>
    <edge id="C2C1" from="C2" to="C1" priority="1"><lane id="C2C1_0" index="0" speed="13.89" length="200.00" shape="400.00,400.00 400.00,200.00"/></edge>

    <connection from="A1B1" to="B1C1" fromLane="0" toLane="0" dir="s" state="G"/> <connection from="A1B1" to="B1B2" fromLane="0" toLane="0" dir="r" state="g"/> <connection from="C1B1" to="B1A1" fromLane="0" toLane="0" dir="s" state="G"/> <connection from="C1B1" to="B1B0" fromLane="0" toLane="0" dir="r" state="g"/> <connection from="B0B1" to="B1A1" fromLane="0" toLane="0" dir="l" state="g"/> <connection from="B0B1" to="B1B2" fromLane="0" toLane="0" dir="s" state="G"/> <connection from="B2B1" to="B1C1" fromLane="0" toLane="0" dir="l" state="g"/> <connection from="B2B1" to="B1B0" fromLane="0" toLane="0" dir="s" state="G"/> <connection from="A0B0" to="B0C0" fromLane="0" toLane="0" dir="s" state="G"/>
    <connection from="A0B0" to="B0B1" fromLane="0" toLane="0" dir="r" state="g"/>
    <connection from="C0B0" to="B0A0" fromLane="0" toLane="0" dir="s" state="G"/>
    <connection from="C0B0" to="B0B1" fromLane="0" toLane="0" dir="l" state="g"/>
    <connection from="B1B0" to="B0A0" fromLane="0" toLane="0" dir="l" state="g"/>
    <connection from="B1B0" to="B0C0" fromLane="0" toLane="0" dir="r" state="G"/>

    <connection from="A2B2" to="B2C2" fromLane="0" toLane="0" dir="s" state="G"/>
    <connection from="A2B2" to="B2B1" fromLane="0" toLane="0" dir="r" state="g"/>
    <connection from="C2B2" to="B2A2" fromLane="0" toLane="0" dir="s" state="G"/>
    <connection from="C2B2" to="B2B1" fromLane="0" toLane="0" dir="l" state="g"/>
    <connection from="B1B2" to="B2A2" fromLane="0" toLane="0" dir="l" state="g"/>
    <connection from="B1B2" to="B2C2" fromLane="0" toLane="0" dir="r" state="G"/>

    <connection from="B0A0" to="A0A1" fromLane="0" toLane="0" dir="s"/>
    <connection from="A1A0" to="A0B0" fromLane="0" toLane="0" dir="s"/> 
    </net>
