<routes xmlns:xsi="http://www.w3.org/2001/XMLSchema-instance" xsi:noNamespaceSchemaLocation="http://sumo.dlr.de/xsd/routes_file.xsd">
    <vType id="car" accel="2.6" decel="4.5" sigma="0.5" length="5" minGap="2.5" maxSpeed="13.89" color="yellow"/>
    <vType id="bus" accel="1.5" decel="3.0" sigma="0.5" length="12" minGap="3.0" maxSpeed="11.11" guiShape="bus" color="green"/>
    <vType id="emergency" accel="4.0" decel="6.0" sigma="0.5" length="5" minGap="2.0" maxSpeed="20.0" guiShape="emergency" color="blue"/>

    <route id="R_H_A0_D0" edges="A0B0 B0C0 C0D0"/>
    <route id="R_H_D0_A0" edges="D0C0 C0B0 B0A0"/>
    <route id="R_V_B0_B3" edges="B0B1 B1B2 B2B3"/>
    <route id="R_V_B3_B0" edges="B3B2 B2B1 B1B0"/>
    <route id="R_V_C0_C3" edges="C0C1 C1C2 C2C3"/>
    <route id="R_V_C3_C0" edges="C3C2 C2C1 C1C0"/>

    <flow id="F_car_H_A0D0" type="car" route="R_H_A0_D0" begin="0" end="3600" period="15" departLane="random"/>
    <flow id="F_car_H_D0A0" type="car" route="R_H_D0_A0" begin="0" end="3600" period="15" departLane="random"/>
    <flow id="F_car_V_B0B3" type="car" route="R_V_B0_B3" begin="0" end="3600" period="15" departLane="random"/>
    <flow id="F_car_V_B3B0" type="car" route="R_V_B3_B0" begin="0" end="3600" period="15" departLane="random"/>

    <flow id="F_bus_V_C0C3" type="bus" route="R_V_C0_C3" begin="0" end="3600" period="120" departLane="random"/>
    <flow id="F_bus_V_C3C0" type="bus" route="R_V_C3_C0" begin="0" end="3600" period="120" departLane="random"/>

    <flow id="F_emergency_A0B0" type="emergency" route="R_H_A0_D0" begin="300" end="3600" period="300" departLane="random"/>
    <flow id="F_emergency_B0B3" type="emergency" route="R_V_B0_B3" begin="600" end="3600" period="300" departLane="random"/>

</routes>