<edges>
    <edge id="1152923703630103687" from="1159" to="1977" numLanes="1" speed="13.89"/>
    <edge id="1152923703630103688" from="1160" to="1866" numLanes="1" speed="13.89"/>
    <edge id="1152923703630103691" from="1163" to="1344" numLanes="1" speed="13.89"/>
    <edge id="1152923703630103692" from="1164" to="1341" numLanes="1" speed="13.89"/>
    <edge id="1152923703630103693" from="1165" to="1962" numLanes="1" speed="13.89"/>
    <edge id="1155175503443788941" from="1165" to="2004" numLanes="1" speed="13.89"/>
    <edge id="1152923703630103694" from="1166" to="1168" numLanes="1" speed="13.89"/>
    <edge id="1152923703630103695" from="1167" to="1776" numLanes="1" speed="13.89"/>
    <edge id="1152923703630103696" from="1168" to="1778" numLanes="1" speed="13.89"/>
    <edge id="1152923703630103697" from="1169" to="1795" numLanes="1" speed="13.89"/>
    <edge id="1152923703630103698" from="1170" to="1621" numLanes="1" speed="13.89"/>
    <edge id="1152923703630103699" from="1171" to="2003" numLanes="1" speed="13.89"/>
    <edge id="1152923703630103700" from="1172" to="1184" numLanes="1" speed="13.89"/>
    <edge id="1152923703630103701" from="1173" to="1581" numLanes="1" speed="13.89"/>
    <edge id="6919783026478024010" from="1174" to="1354" numLanes="1" speed="13.89"/>
    <edge id="1152923703630103703" from="1175" to="1352" numLanes="1" speed="13.89"/>
    <edge id="1152923703630103704" from="1176" to="2033" numLanes="1" speed="13.89"/>
    <edge id="1152923703630103705" from="1177" to="1937" numLanes="1" speed="13.89"/>
    <edge id="1157427303257474201" from="1177" to="1986" numLanes="1" speed="13.89"/>
    <edge id="6919783026478024410" from="1178" to="1754" numLanes="1" speed="13.89"/>
    <edge id="1152923703630103707" from="1179" to="1170" numLanes="1" speed="13.89"/>
    <edge id="6922034826291709272" from="1180" to="1368" numLanes="1" speed="13.89"/>
    <edge id="1152923703630103709" from="1181" to="1360" numLanes="1" speed="13.89"/>
    <edge id="6919783026478023888" from="1182" to="1232" numLanes="1" speed="13.89"/>
    <edge id="1152923703630103711" from="1183" to="1261" numLanes="1" speed="13.89"/>
    <edge id="1152923703630103712" from="1184" to="1677" numLanes="1" speed="13.89"/>
    <edge id="1152923703630103713" from="1185" to="1186" numLanes="1" speed="13.89"/>
    <edge id="1152923703630103714" from="1186" to="1926" numLanes="1" speed="13.89"/>
    <edge id="1152923703630103715" from="1187" to="2200" numLanes="1" speed="13.89"/>
    <edge id="1152923703630103716" from="1188" to="2254" numLanes="1" speed="13.89"/>
    <edge id="6919783026478023844" from="1189" to="1188" numLanes="1" speed="13.89"/>
    <edge id="6919783026478024769" from="1189" to="2113" numLanes="1" speed="13.89"/>
    <edge id="1152923703630103721" from="1193" to="1196" numLanes="1" speed="13.89"/>
    <edge id="1152923703630103722" from="1194" to="1197" numLanes="1" speed="13.89"/>
    <edge id="1152923703630103723" from="1195" to="1199" numLanes="1" speed="13.89"/>
    <edge id="1152923703630103724" from="1196" to="1195" numLanes="1" speed="13.89"/>
    <edge id="1152923703630103725" from="1197" to="1198" numLanes="1" speed="13.89"/>
    <edge id="1152923703630103726" from="1198" to="1193" numLanes="1" speed="13.89"/>
    <edge id="1152923703630103727" from="1199" to="1668" numLanes="1" speed="13.89"/>
    <edge id="1152923703630103728" from="1200" to="1772" numLanes="1" speed="13.89"/>
    <edge id="1157427303257474225" from="1201" to="1210" numLanes="1" speed="13.89"/>
    <edge id="1152923703630103729" from="1201" to="1284" numLanes="1" speed="13.89"/>
    <edge id="1157427303257474226" from="1202" to="1211" numLanes="1" speed="13.89"/>
    <edge id="1152923703630103730" from="1202" to="1771" numLanes="1" speed="13.89"/>
    <edge id="1152923703630103731" from="1203" to="1204" numLanes="1" speed="13.89"/>
    <edge id="1152923703630103732" from="1204" to="1271" numLanes="1" speed="13.89"/>
    <edge id="1152923703630103733" from="1205" to="1202" numLanes="1" speed="13.89"/>
    <edge id="1157427303257474229" from="1205" to="1278" numLanes="1" speed="13.89"/>
    <edge id="1155175503443788982" from="1206" to="1217" numLanes="1" speed="13.89"/>
    <edge id="1152923703630103734" from="1206" to="1241" numLanes="1" speed="13.89"/>
    <edge id="6919783026478023867" from="1207" to="1211" numLanes="1" speed="13.89"/>
    <edge id="1152923703630103735" from="1207" to="1212" numLanes="1" speed="13.89"/>
    <edge id="1152923703630103736" from="1208" to="1206" numLanes="1" speed="13.89"/>
    <edge id="1157427303257474233" from="1209" to="1251" numLanes="1" speed="13.89"/>
    <edge id="1152923703630103737" from="1209" to="1285" numLanes="1" speed="13.89"/>
    <edge id="1152923703630103738" from="1210" to="1208" numLanes="1" speed="13.89"/>
    <edge id="1152923703630103739" from="1211" to="1220" numLanes="1" speed="13.89"/>
    <edge id="1157427303257474235" from="1211" to="1246" numLanes="1" speed="13.89"/>
    <edge id="1152923703630103740" from="1212" to="1298" numLanes="1" speed="13.89"/>
    <edge id="1157427303257474237" from="1213" to="1217" numLanes="1" speed="13.89"/>
    <edge id="1152923703630103741" from="1213" to="1223" numLanes="1" speed="13.89"/>
    <edge id="1152923703630103742" from="1214" to="1215" numLanes="1" speed="13.89"/>
    <edge id="1152923703630103743" from="1215" to="1252" numLanes="1" speed="13.89"/>
    <edge id="1152923703630103744" from="1216" to="1297" numLanes="1" speed="13.89"/>
    <edge id="1152923703630103745" from="1217" to="1240" numLanes="1" speed="13.89"/>
    <edge id="1155175503443788993" from="1217" to="1245" numLanes="1" speed="13.89"/>
    <edge id="1152923703630103746" from="1218" to="1220" numLanes="1" speed="13.89"/>
    <edge id="1157427303257474243" from="1219" to="1210" numLanes="1" speed="13.89"/>
    <edge id="1152923703630103747" from="1219" to="1244" numLanes="1" speed="13.89"/>
    <edge id="1152923703630103748" from="1220" to="1222" numLanes="1" speed="13.89"/>
    <edge id="6919783026478023865" from="1221" to="1209" numLanes="1" speed="13.89"/>
    <edge id="1152923703630103750" from="1222" to="1296" numLanes="1" speed="13.89"/>
    <edge id="1152923703630103751" from="1223" to="1225" numLanes="1" speed="13.89"/>
    <edge id="1152923703630103752" from="1224" to="1260" numLanes="1" speed="13.89"/>
    <edge id="1152923703630103753" from="1225" to="1227" numLanes="1" speed="13.89"/>
    <edge id="1152923703630103754" from="1226" to="1236" numLanes="1" speed="13.89"/>
    <edge id="1152923703630103755" from="1227" to="1228" numLanes="1" speed="13.89"/>
    <edge id="6919783026478023885" from="1228" to="1229" numLanes="1" speed="13.89"/>
    <edge id="1152923703630103757" from="1229" to="1266" numLanes="1" speed="13.89"/>
    <edge id="1157427303257474253" from="1229" to="1279" numLanes="1" speed="13.89"/>
    <edge id="1152923703630103758" from="1230" to="1231" numLanes="1" speed="13.89"/>
    <edge id="1152923703630103759" from="1231" to="1265" numLanes="1" speed="13.89"/>
    <edge id="1152923703630103760" from="1232" to="1183" numLanes="1" speed="13.89"/>
    <edge id="1152923703630103762" from="1234" to="1280" numLanes="1" speed="13.89"/>
    <edge id="1152923703630103763" from="1235" to="1221" numLanes="1" speed="13.89"/>
    <edge id="1155175503443789011" from="1235" to="1559" numLanes="1" speed="13.89"/>
    <edge id="1152923703630103764" from="1236" to="1235" numLanes="1" speed="13.89"/>
    <edge id="1155175503443789012" from="1236" to="1588" numLanes="1" speed="13.89"/>
    <edge id="1152923703630103765" from="1237" to="1264" numLanes="1" speed="13.89"/>
    <edge id="1152923703630103766" from="1238" to="1239" numLanes="1" speed="13.89"/>
    <edge id="1152923703630103767" from="1239" to="1207" numLanes="1" speed="13.89"/>
    <edge id="1152923703630103768" from="1240" to="1227" numLanes="1" speed="13.89"/>
    <edge id="1152923703630103769" from="1241" to="1205" numLanes="1" speed="13.89"/>
    <edge id="1152923703630103770" from="1242" to="1294" numLanes="1" speed="13.89"/>
    <edge id="1152923703630103771" from="1243" to="1299" numLanes="1" speed="13.89"/>
    <edge id="1152923703630103772" from="1244" to="1314" numLanes="1" speed="13.89"/>
    <edge id="1152923703630103773" from="1245" to="1219" numLanes="1" speed="13.89"/>
    <edge id="6919783026478023869" from="1246" to="1213" numLanes="1" speed="13.89"/>
    <edge id="1152923703630103775" from="1247" to="1292" numLanes="1" speed="13.89"/>
    <edge id="1152923703630103776" from="1248" to="1250" numLanes="1" speed="13.89"/>
    <edge id="1152923703630103777" from="1249" to="1248" numLanes="1" speed="13.89"/>
    <edge id="1152923703630103778" from="1250" to="1301" numLanes="1" speed="13.89"/>
    <edge id="1152923703630103779" from="1251" to="1200" numLanes="1" speed="13.89"/>
    <edge id="1152923703630103780" from="1252" to="1210" numLanes="1" speed="13.89"/>
    <edge id="1152923703630103781" from="1253" to="1300" numLanes="1" speed="13.89"/>
    <edge id="1152923703630103782" from="1254" to="1306" numLanes="1" speed="13.89"/>
    <edge id="1152923703630103783" from="1255" to="1272" numLanes="1" speed="13.89"/>
    <edge id="1152923703630103784" from="1256" to="1214" numLanes="1" speed="13.89"/>
    <edge id="1152923703630103785" from="1257" to="1290" numLanes="1" speed="13.89"/>
    <edge id="1152923703630103786" from="1258" to="1257" numLanes="1" speed="13.89"/>
    <edge id="1152923703630103787" from="1259" to="1258" numLanes="1" speed="13.89"/>
    <edge id="1152923703630103788" from="1260" to="1259" numLanes="1" speed="13.89"/>
    <edge id="1152923703630103789" from="1261" to="1226" numLanes="1" speed="13.89"/>
    <edge id="1152923703630103790" from="1262" to="1273" numLanes="1" speed="13.89"/>
    <edge id="1152923703630103791" from="1263" to="1288" numLanes="1" speed="13.89"/>
    <edge id="1152923703630103792" from="1264" to="1263" numLanes="1" speed="13.89"/>
    <edge id="1152923703630103793" from="1265" to="1237" numLanes="1" speed="13.89"/>
    <edge id="1152923703630103794" from="1266" to="1230" numLanes="1" speed="13.89"/>
    <edge id="1152923703630103795" from="1267" to="1282" numLanes="1" speed="13.89"/>
    <edge id="1152923703630103796" from="1268" to="1267" numLanes="1" speed="13.89"/>
    <edge id="1152923703630103797" from="1269" to="1281" numLanes="1" speed="13.89"/>
    <edge id="1152923703630103798" from="1270" to="1283" numLanes="1" speed="13.89"/>
    <edge id="1152923703630103799" from="1271" to="1270" numLanes="1" speed="13.89"/>
    <edge id="1152923703630103800" from="1272" to="1256" numLanes="1" speed="13.89"/>
    <edge id="1152923703630103801" from="1273" to="1287" numLanes="1" speed="13.89"/>
    <edge id="1152923703630103802" from="1274" to="1262" numLanes="1" speed="13.89"/>
    <edge id="1152923703630103803" from="1275" to="1274" numLanes="1" speed="13.89"/>
    <edge id="1152923703630103804" from="1276" to="1277" numLanes="1" speed="13.89"/>
    <edge id="1152923703630103805" from="1277" to="1249" numLanes="1" speed="13.89"/>
    <edge id="1152923703630103806" from="1278" to="1213" numLanes="1" speed="13.89"/>
    <edge id="6919783026478023875" from="1279" to="1219" numLanes="1" speed="13.89"/>
    <edge id="1152923703630103808" from="1280" to="1339" numLanes="1" speed="13.89"/>
    <edge id="1152923703630103809" from="1281" to="1200" numLanes="1" speed="13.89"/>
    <edge id="1152923703630103810" from="1282" to="1269" numLanes="1" speed="13.89"/>
    <edge id="1152923703630103811" from="1283" to="1268" numLanes="1" speed="13.89"/>
    <edge id="1152923703630103812" from="1284" to="1203" numLanes="1" speed="13.89"/>
    <edge id="1152923703630103813" from="1285" to="1253" numLanes="1" speed="13.89"/>
    <edge id="1152923703630103814" from="1286" to="1254" numLanes="1" speed="13.89"/>
    <edge id="1152923703630103815" from="1287" to="1182" numLanes="1" speed="13.89"/>
    <edge id="1152923703630103816" from="1288" to="1275" numLanes="1" speed="13.89"/>
    <edge id="1152923703630103817" from="1289" to="1247" numLanes="1" speed="13.89"/>
    <edge id="1152923703630103818" from="1290" to="1289" numLanes="1" speed="13.89"/>
    <edge id="1152923703630103819" from="1291" to="1221" numLanes="1" speed="13.89"/>
    <edge id="1152923703630103820" from="1292" to="1291" numLanes="1" speed="13.89"/>
    <edge id="1152923703630103821" from="1293" to="1242" numLanes="1" speed="13.89"/>
    <edge id="1152923703630103822" from="1294" to="1295" numLanes="1" speed="13.89"/>
    <edge id="1152923703630103823" from="1295" to="1194" numLanes="1" speed="13.89"/>
    <edge id="1152923703630103824" from="1296" to="1223" numLanes="1" speed="13.89"/>
    <edge id="1152923703630103825" from="1297" to="1218" numLanes="1" speed="13.89"/>
    <edge id="1152923703630103826" from="1298" to="1216" numLanes="1" speed="13.89"/>
    <edge id="1152923703630103827" from="1299" to="1238" numLanes="1" speed="13.89"/>
    <edge id="1152923703630103828" from="1300" to="1286" numLanes="1" speed="13.89"/>
    <edge id="1152923703630103829" from="1301" to="1293" numLanes="1" speed="13.89"/>
    <edge id="1152923703630103831" from="1303" to="1302" numLanes="1" speed="13.89"/>
    <edge id="1152923703630103832" from="1304" to="1303" numLanes="1" speed="13.89"/>
    <edge id="1152923703630103833" from="1305" to="1304" numLanes="1" speed="13.89"/>
    <edge id="1152923703630103834" from="1306" to="1255" numLanes="1" speed="13.89"/>
    <edge id="1155175503443789082" from="1306" to="1305" numLanes="1" speed="13.89"/>
    <edge id="1152923703630103835" from="1307" to="1233" numLanes="1" speed="13.89"/>
    <edge id="1152923703630103837" from="1309" to="1308" numLanes="1" speed="13.89"/>
    <edge id="1152923703630103838" from="1310" to="1309" numLanes="1" speed="13.89"/>
    <edge id="1152923703630103839" from="1311" to="1310" numLanes="1" speed="13.89"/>
    <edge id="1152923703630103840" from="1312" to="1311" numLanes="1" speed="13.89"/>
    <edge id="1152923703630103841" from="1313" to="1312" numLanes="1" speed="13.89"/>
    <edge id="1152923703630103842" from="1314" to="1224" numLanes="1" speed="13.89"/>
    <edge id="1155175503443789090" from="1314" to="1313" numLanes="1" speed="13.89"/>
    <edge id="6922034826291709830" from="1315" to="1926" numLanes="1" speed="13.89"/>
    <edge id="1152923703630103844" from="1316" to="1315" numLanes="1" speed="13.89"/>
    <edge id="1152923703630103845" from="1317" to="1316" numLanes="1" speed="13.89"/>
    <edge id="1152923703630103846" from="1318" to="1317" numLanes="1" speed="13.89"/>
    <edge id="1152923703630103847" from="1319" to="1318" numLanes="1" speed="13.89"/>
    <edge id="1152923703630103848" from="1320" to="1319" numLanes="1" speed="13.89"/>
    <edge id="1152923703630103849" from="1321" to="1320" numLanes="1" speed="13.89"/>
    <edge id="1152923703630103850" from="1322" to="1321" numLanes="1" speed="13.89"/>
    <edge id="1152923703630103851" from="1323" to="1322" numLanes="1" speed="13.89"/>
    <edge id="1152923703630103852" from="1324" to="1323" numLanes="1" speed="13.89"/>
    <edge id="1152923703630103853" from="1325" to="1324" numLanes="1" speed="13.89"/>
    <edge id="1152923703630103854" from="1326" to="1325" numLanes="1" speed="13.89"/>
    <edge id="1152923703630103855" from="1327" to="1328" numLanes="1" speed="13.89"/>
    <edge id="1152923703630103856" from="1328" to="1329" numLanes="1" speed="13.89"/>
    <edge id="1152923703630103857" from="1329" to="1330" numLanes="1" speed="13.89"/>
    <edge id="1152923703630103858" from="1330" to="1331" numLanes="1" speed="13.89"/>
    <edge id="1152923703630103859" from="1331" to="1332" numLanes="1" speed="13.89"/>
    <edge id="1152923703630103860" from="1332" to="1333" numLanes="1" speed="13.89"/>
    <edge id="1152923703630103861" from="1333" to="1334" numLanes="1" speed="13.89"/>
    <edge id="1152923703630103862" from="1334" to="1335" numLanes="1" speed="13.89"/>
    <edge id="1152923703630103863" from="1335" to="1336" numLanes="1" speed="13.89"/>
    <edge id="1152923703630103864" from="1336" to="1337" numLanes="1" speed="13.89"/>
    <edge id="1152923703630103865" from="1337" to="1338" numLanes="1" speed="13.89"/>
    <edge id="6919783026478024031" from="1338" to="1375" numLanes="1" speed="13.89"/>
    <edge id="1152923703630103867" from="1339" to="1276" numLanes="1" speed="13.89"/>
    <edge id="1152923703630103869" from="1341" to="1489" numLanes="1" speed="13.89"/>
    <edge id="6919783026478024047" from="1342" to="1391" numLanes="1" speed="13.89"/>
    <edge id="1152923703630103870" from="1342" to="1494" numLanes="1" speed="13.89"/>
    <edge id="1152923703630103871" from="1343" to="1175" numLanes="1" speed="13.89"/>
    <edge id="1157427303257474367" from="1343" to="1586" numLanes="1" speed="13.89"/>
    <edge id="1152923703630103872" from="1344" to="1414" numLanes="1" speed="13.89"/>
    <edge id="1157427303257474369" from="1345" to="1347" numLanes="1" speed="13.89"/>
    <edge id="1152923703630103873" from="1345" to="2244" numLanes="1" speed="13.89"/>
    <edge id="1157427303257474370" from="1346" to="1163" numLanes="1" speed="13.89"/>
    <edge id="1152923703630103874" from="1346" to="1594" numLanes="1" speed="13.89"/>
    <edge id="1157427303257474371" from="1347" to="1485" numLanes="1" speed="13.89"/>
    <edge id="1155175503443789123" from="1347" to="1587" numLanes="1" speed="13.89"/>
    <edge id="1152923703630103875" from="1347" to="1597" numLanes="1" speed="13.89"/>
    <edge id="1152923703630103876" from="1348" to="1595" numLanes="1" speed="13.89"/>
    <edge id="1152923703630103877" from="1349" to="1451" numLanes="1" speed="13.89"/>
    <edge id="1155175503443789125" from="1349" to="1478" numLanes="1" speed="13.89"/>
    <edge id="1152923703630103878" from="1350" to="1389" numLanes="1" speed="13.89"/>
    <edge id="1152923703630103879" from="1351" to="1348" numLanes="1" speed="13.89"/>
    <edge id="1157427303257474375" from="1351" to="1532" numLanes="1" speed="13.89"/>
    <edge id="1152923703630103880" from="1352" to="1174" numLanes="1" speed="13.89"/>
    <edge id="1152923703630103881" from="1353" to="1395" numLanes="1" speed="13.89"/>
    <edge id="1157427303257474378" from="1354" to="1173" numLanes="1" speed="13.89"/>
    <edge id="1152923703630103882" from="1354" to="1345" numLanes="1" speed="13.89"/>
    <edge id="1152923703630103883" from="1355" to="1483" numLanes="1" speed="13.89"/>
    <edge id="1152923703630103884" from="1356" to="1533" numLanes="1" speed="13.89"/>
    <edge id="1152923703630103885" from="1357" to="1454" numLanes="1" speed="13.89"/>
    <edge id="1152923703630103886" from="1358" to="1365" numLanes="1" speed="13.89"/>
    <edge id="1152923703630103887" from="1359" to="1181" numLanes="1" speed="13.89"/>
    <edge id="6919783026478024017" from="1360" to="1361" numLanes="1" speed="13.89"/>
    <edge id="1152923703630103889" from="1361" to="1444" numLanes="1" speed="13.89"/>
    <edge id="1152923703630103890" from="1362" to="1361" numLanes="1" speed="13.89"/>
    <edge id="1152923703630103891" from="1363" to="1367" numLanes="1" speed="13.89"/>
    <edge id="1155175503443789139" from="1363" to="1592" numLanes="1" speed="13.89"/>
    <edge id="1155175503443789140" from="1364" to="1360" numLanes="1" speed="13.89"/>
    <edge id="1152923703630103892" from="1364" to="1362" numLanes="1" speed="13.89"/>
    <edge id="1152923703630103893" from="1365" to="1180" numLanes="1" speed="13.89"/>
    <edge id="1152923703630103894" from="1366" to="1364" numLanes="1" speed="13.89"/>
    <edge id="1152923703630103895" from="1367" to="1445" numLanes="1" speed="13.89"/>
    <edge id="1152923703630103896" from="1368" to="1366" numLanes="1" speed="13.89"/>
    <edge id="1159679103071159640" from="1368" to="1635" numLanes="1" speed="13.89"/>
    <edge id="1152923703630103897" from="1369" to="1371" numLanes="1" speed="13.89"/>
    <edge id="1152923703630103898" from="1370" to="1443" numLanes="1" speed="13.89"/>
    <edge id="1152923703630103899" from="1371" to="1641" numLanes="1" speed="13.89"/>
    <edge id="1155175503443789147" from="1371" to="1642" numLanes="1" speed="13.89"/>
    <edge id="1152923703630103900" from="1372" to="1449" numLanes="1" speed="13.89"/>
    <edge id="1152923703630103901" from="1373" to="1375" numLanes="1" speed="13.89"/>
    <edge id="1152923703630103902" from="1374" to="1372" numLanes="1" speed="13.89"/>
    <edge id="1152923703630103903" from="1375" to="1447" numLanes="1" speed="13.89"/>
    <edge id="1152923703630103904" from="1376" to="1619" numLanes="1" speed="13.89"/>
    <edge id="1157427303257474401" from="1377" to="1378" numLanes="1" speed="13.89"/>
    <edge id="1152923703630103905" from="1377" to="1607" numLanes="1" speed="13.89"/>
    <edge id="1152923703630103907" from="1379" to="1408" numLanes="1" speed="13.89"/>
    <edge id="1157427303257474403" from="1379" to="1613" numLanes="1" speed="13.89"/>
    <edge id="1152923703630103909" from="1381" to="1385" numLanes="1" speed="13.89"/>
    <edge id="1152923703630103910" from="1382" to="1383" numLanes="1" speed="13.89"/>
    <edge id="1152923703630103911" from="1383" to="1381" numLanes="1" speed="13.89"/>
    <edge id="1152923703630103912" from="1384" to="1382" numLanes="1" speed="13.89"/>
    <edge id="1152923703630103913" from="1385" to="1612" numLanes="1" speed="13.89"/>
    <edge id="1152923703630103914" from="1386" to="1614" numLanes="1" speed="13.89"/>
    <edge id="1152923703630103915" from="1387" to="1386" numLanes="1" speed="13.89"/>
    <edge id="1152923703630103916" from="1388" to="1350" numLanes="1" speed="13.89"/>
    <edge id="6919783026478024007" from="1389" to="1351" numLanes="1" speed="13.89"/>
    <edge id="1157427303257474414" from="1390" to="1477" numLanes="1" speed="13.89"/>
    <edge id="1152923703630103918" from="1390" to="1582" numLanes="1" speed="13.89"/>
    <edge id="1157427303257474415" from="1391" to="1349" numLanes="1" speed="13.89"/>
    <edge id="1152923703630103919" from="1391" to="1593" numLanes="1" speed="13.89"/>
    <edge id="6919783026478024049" from="1392" to="1393" numLanes="1" speed="13.89"/>
    <edge id="1152923703630103921" from="1393" to="1401" numLanes="1" speed="13.89"/>
    <edge id="1152923703630103922" from="1394" to="1353" numLanes="1" speed="13.89"/>
    <edge id="1155175503443789170" from="1394" to="1441" numLanes="1" speed="13.89"/>
    <edge id="6919783026478024805" from="1395" to="2149" numLanes="1" speed="13.89"/>
    <edge id="1152923703630103924" from="1396" to="1424" numLanes="1" speed="13.89"/>
    <edge id="1157427303257474421" from="1397" to="1458" numLanes="1" speed="13.89"/>
    <edge id="1152923703630103925" from="1397" to="1615" numLanes="1" speed="13.89"/>
    <edge id="1155175503443789174" from="1398" to="1379" numLanes="1" speed="13.89"/>
    <edge id="1152923703630103926" from="1398" to="1426" numLanes="1" speed="13.89"/>
    <edge id="1152923703630103927" from="1399" to="1531" numLanes="1" speed="13.89"/>
    <edge id="1152923703630103928" from="1400" to="1473" numLanes="1" speed="13.89"/>
    <edge id="1152923703630103929" from="1401" to="1377" numLanes="1" speed="13.89"/>
    <edge id="6919783026478024057" from="1402" to="1401" numLanes="1" speed="13.89"/>
    <edge id="1152923703630103932" from="1404" to="1570" numLanes="1" speed="13.89"/>
    <edge id="1152923703630103933" from="1405" to="1529" numLanes="1" speed="13.89"/>
    <edge id="1152923703630103934" from="1406" to="1468" numLanes="1" speed="13.89"/>
    <edge id="6919783026478024065" from="1407" to="1409" numLanes="1" speed="13.89"/>
    <edge id="1152923703630103936" from="1408" to="1524" numLanes="1" speed="13.89"/>
    <edge id="1152923703630103937" from="1409" to="1598" numLanes="1" speed="13.89"/>
    <edge id="1157427303257474433" from="1409" to="1599" numLanes="1" speed="13.89"/>
    <edge id="1152923703630103938" from="1410" to="1411" numLanes="1" speed="13.89"/>
    <edge id="1152923703630103939" from="1411" to="1412" numLanes="1" speed="13.89"/>
    <edge id="1152923703630103940" from="1412" to="1413" numLanes="1" speed="13.89"/>
    <edge id="6919783026478024064" from="1413" to="1408" numLanes="1" speed="13.89"/>
    <edge id="1152923703630103942" from="1414" to="1488" numLanes="1" speed="13.89"/>
    <edge id="1152923703630103943" from="1415" to="1516" numLanes="1" speed="13.89"/>
    <edge id="6919783026478024106" from="1416" to="1450" numLanes="1" speed="13.89"/>
    <edge id="1152923703630103945" from="1417" to="1418" numLanes="1" speed="13.89"/>
    <edge id="1152923703630103946" from="1418" to="1576" numLanes="1" speed="13.89"/>
    <edge id="1152923703630103947" from="1419" to="1179" numLanes="1" speed="13.89"/>
    <edge id="1157427303257474443" from="1419" to="1307" numLanes="1" speed="13.89"/>
    <edge id="1152923703630103948" from="1420" to="1617" numLanes="1" speed="13.89"/>
    <edge id="1152923703630103949" from="1421" to="1462" numLanes="1" speed="13.89"/>
    <edge id="1152923703630103950" from="1422" to="1423" numLanes="1" speed="13.89"/>
    <edge id="1152923703630103951" from="1423" to="1396" numLanes="1" speed="13.89"/>
    <edge id="1152923703630103952" from="1424" to="1425" numLanes="1" speed="13.89"/>
    <edge id="1152923703630103953" from="1425" to="1585" numLanes="1" speed="13.89"/>
    <edge id="1152923703630103954" from="1426" to="1433" numLanes="1" speed="13.89"/>
    <edge id="1152923703630103955" from="1427" to="1428" numLanes="1" speed="13.89"/>
    <edge id="1152923703630103956" from="1428" to="1457" numLanes="1" speed="13.89"/>
    <edge id="1152923703630103957" from="1429" to="1430" numLanes="1" speed="13.89"/>
    <edge id="1152923703630103958" from="1430" to="1583" numLanes="1" speed="13.89"/>
    <edge id="1152923703630103959" from="1431" to="1432" numLanes="1" speed="13.89"/>
    <edge id="6919783026478024035" from="1432" to="1379" numLanes="1" speed="13.89"/>
    <edge id="1152923703630103961" from="1433" to="1434" numLanes="1" speed="13.89"/>
    <edge id="1152923703630103962" from="1434" to="1427" numLanes="1" speed="13.89"/>
    <edge id="6919783026478024053" from="1435" to="1397" numLanes="1" speed="13.89"/>
    <edge id="1152923703630103964" from="1436" to="1422" numLanes="1" speed="13.89"/>
    <edge id="1152923703630103965" from="1437" to="1460" numLanes="1" speed="13.89"/>
    <edge id="1152923703630103966" from="1438" to="1632" numLanes="1" speed="13.89"/>
    <edge id="1152923703630103967" from="1439" to="1440" numLanes="1" speed="13.89"/>
    <edge id="1152923703630103968" from="1440" to="1608" numLanes="1" speed="13.89"/>
    <edge id="1152923703630103969" from="1441" to="1474" numLanes="1" speed="13.89"/>
    <edge id="6919783026478024002" from="1442" to="1346" numLanes="1" speed="13.89"/>
    <edge id="1152923703630103971" from="1443" to="1492" numLanes="1" speed="13.89"/>
    <edge id="1152923703630103972" from="1444" to="1363" numLanes="1" speed="13.89"/>
    <edge id="1152923703630103973" from="1445" to="1446" numLanes="1" speed="13.89"/>
    <edge id="1152923703630103974" from="1446" to="1369" numLanes="1" speed="13.89"/>
    <edge id="1152923703630103975" from="1447" to="1448" numLanes="1" speed="13.89"/>
    <edge id="1152923703630103976" from="1448" to="1376" numLanes="1" speed="13.89"/>
    <edge id="1152923703630103977" from="1449" to="1370" numLanes="1" speed="13.89"/>
    <edge id="1152923703630103978" from="1450" to="1232" numLanes="1" speed="13.89"/>
    <edge id="1157427303257474474" from="1450" to="1591" numLanes="1" speed="13.89"/>
    <edge id="1152923703630103979" from="1451" to="1387" numLanes="1" speed="13.89"/>
    <edge id="1152923703630103980" from="1452" to="1352" numLanes="1" speed="13.89"/>
    <edge id="1152923703630103981" from="1453" to="1356" numLanes="1" speed="13.89"/>
    <edge id="1152923703630103982" from="1454" to="1455" numLanes="1" speed="13.89"/>
    <edge id="1152923703630103983" from="1455" to="1515" numLanes="1" speed="13.89"/>
    <edge id="1152923703630103984" from="1456" to="1431" numLanes="1" speed="13.89"/>
    <edge id="1155175503443789232" from="1456" to="1631" numLanes="1" speed="13.89"/>
    <edge id="1152923703630103985" from="1457" to="1429" numLanes="1" speed="13.89"/>
    <edge id="1152923703630103986" from="1458" to="1436" numLanes="1" speed="13.89"/>
    <edge id="1152923703630103987" from="1459" to="1396" numLanes="1" speed="13.89"/>
    <edge id="1152923703630103988" from="1460" to="1611" numLanes="1" speed="13.89"/>
    <edge id="1152923703630103989" from="1461" to="1577" numLanes="1" speed="13.89"/>
    <edge id="1152923703630103990" from="1462" to="1461" numLanes="1" speed="13.89"/>
    <edge id="1152923703630103991" from="1463" to="1405" numLanes="1" speed="13.89"/>
    <edge id="1152923703630103992" from="1464" to="1463" numLanes="1" speed="13.89"/>
    <edge id="1152923703630103993" from="1465" to="1464" numLanes="1" speed="13.89"/>
    <edge id="1152923703630103994" from="1466" to="1465" numLanes="1" speed="13.89"/>
    <edge id="1152923703630103995" from="1467" to="1606" numLanes="1" speed="13.89"/>
    <edge id="1152923703630103996" from="1468" to="1407" numLanes="1" speed="13.89"/>
    <edge id="1152923703630103997" from="1469" to="1467" numLanes="1" speed="13.89"/>
    <edge id="1152923703630103998" from="1470" to="1530" numLanes="1" speed="13.89"/>
    <edge id="1152923703630103999" from="1471" to="1609" numLanes="1" speed="13.89"/>
    <edge id="1152923703630104000" from="1472" to="1565" numLanes="1" speed="13.89"/>
    <edge id="1152923703630104001" from="1473" to="1439" numLanes="1" speed="13.89"/>
    <edge id="1152923703630104002" from="1474" to="1400" numLanes="1" speed="13.89"/>
    <edge id="1152923703630104003" from="1475" to="2150" numLanes="1" speed="13.89"/>
    <edge id="1152923703630104004" from="1476" to="1475" numLanes="1" speed="13.89"/>