<?xml version="1.0" encoding="UTF-8"?>

<!-- generated on 2025-09-29 00:51:31 by Eclipse SUMO netconvert Version 1.24.0
<netconvertConfiguration xmlns:xsi="http://www.w3.org/2001/XMLSchema-instance" xsi:noNamespaceSchemaLocation="http://sumo.dlr.de/xsd/netconvertConfiguration.xsd">

    <input>
        <node-files value="/home/pereira/git/UNIP/TCC_SUMO/scenarios/from_api/api.nod.xml"/>
        <edge-files value="/home/pereira/git/UNIP/TCC_SUMO/scenarios/from_api/api.edg.xml"/>
    </input>

    <output>
        <output-file value="/home/pereira/git/UNIP/TCC_SUMO/scenarios/from_api/api.net.xml"/>
    </output>

    <projection>
        <proj.utm value="true"/>
    </projection>

    <processing>
        <geometry.remove value="true"/>
        <roundabouts.guess value="true"/>
    </processing>

    <junctions>
        <junctions.join value="true"/>
        <junctions.join-dist value="15"/>
    </junctions>

    <report>
        <verbose value="true"/>
    </report>

</netconvertConfiguration>
-->

<net version="1.20" junctionCornerDetail="5" limitTurnSpeed="5.50" xmlns:xsi="http://www.w3.org/2001/XMLSchema-instance" xsi:noNamespaceSchemaLocation="http://sumo.dlr.de/xsd/net_file.xsd">

    <location netOffset="-309118.76,2601916.93" convBoundary="0.00,0.00,1906.29,1294.02" origBoundary="-46.869442,-23.516406,-46.850770,-23.504726" projParameter="+proj=utm +zone=23 +ellps=WGS84 +datum=WGS84 +units=m +no_defs"/>

    <edge id=":1165_0" function="internal">
        <lane id=":1165_0_0" index="0" speed="13.89" length="6.22" shape="534.84,1001.93 536.15,1000.63 536.97,999.67 537.72,998.65 538.82,997.17"/>
    </edge>
    <edge id=":1165_1" function="internal">
        <lane id=":1165_1_0" index="0" speed="5.70" length="5.25" shape="534.84,1001.93 535.94,1001.14 537.12,1000.80 538.36,1000.91 539.67,1001.47"/>
    </edge>
    <edge id=":1171_0" function="internal">
        <lane id=":1171_0_0" index="0" speed="13.89" length="6.37" shape="558.20,1008.27 557.42,1009.97 557.09,1011.21 556.95,1012.52 556.73,1014.40"/>
    </edge>
    <edge id=":1171_1" function="internal">
        <lane id=":1171_1_0" index="0" speed="6.09" length="1.33" shape="554.16,1009.92 555.23,1010.71"/>
    </edge>
    <edge id=":1171_2" function="internal">
        <lane id=":1171_2_0" index="0" speed="6.09" length="4.18" shape="555.23,1010.71 555.44,1010.86 556.29,1011.92 556.72,1013.10 556.73,1014.40"/>
    </edge>
    <edge id=":1200_0" function="internal">
        <lane id=":1200_0_0" index="0" speed="13.89" length="11.23" shape="1094.40,586.43 1091.96,597.40"/>
    </edge>
    <edge id=":1200_1" function="internal">
        <lane id=":1200_1_0" index="0" speed="6.51" length="4.09" shape="1087.74,590.66 1090.07,591.56 1091.21,592.66"/>
    </edge>
    <edge id=":1200_2" function="internal">
        <lane id=":1200_2_0" index="0" speed="6.51" length="4.99" shape="1091.21,592.66 1091.55,592.98 1092.18,594.93 1091.96,597.40"/>
    </edge>
    <edge id=":1201_0" function="internal">
        <lane id=":1201_0_0" index="0" speed="13.89" length="10.45" shape="868.93,590.99 865.81,581.02"/>
    </edge>
    <edge id=":1201_1" function="internal">
        <lane id=":1201_1_0" index="0" speed="6.59" length="8.59" shape="868.93,590.99 868.63,588.70 869.12,586.80 870.38,585.28 872.43,584.14"/>
    </edge>
    <edge id=":1202_0" function="internal">
        <lane id=":1202_0_0" index="0" speed="6.54" length="9.01" shape="626.40,584.65 625.27,582.46 623.71,581.15 621.72,580.71 619.29,581.14"/>
    </edge>
    <edge id=":1202_1" function="internal">
        <lane id=":1202_1_0" index="0" speed="13.89" length="11.10" shape="626.40,584.65 622.82,574.14"/>
    </edge>
    <edge id=":1202_2" function="internal">
        <lane id=":1202_2_0" index="0" speed="13.89" length="11.11" shape="629.83,577.62 619.29,581.14"/>
    </edge>
    <edge id=":1202_3" function="internal">
        <lane id=":1202_3_0" index="0" speed="6.46" length="4.01" shape="629.83,577.62 627.42,578.08 625.90,577.75"/>
    </edge>
    <edge id=":1202_4" function="internal">
        <lane id=":1202_4_0" index="0" speed="6.46" length="4.94" shape="625.90,577.75 625.44,577.65 623.91,576.34 622.82,574.14"/>
    </edge>
    <edge id=":1205_0" function="internal">
        <lane id=":1205_0_0" index="0" speed="6.52" length="9.02" shape="691.99,562.34 690.86,560.15 689.29,558.84 687.29,558.42 684.87,558.88"/>
    </edge>
    <edge id=":1205_1" function="internal">
        <lane id=":1205_1_0" index="0" speed="13.89" length="11.15" shape="691.99,562.34 688.36,551.80"/>
    </edge>
    <edge id=":1205_2" function="internal">
        <lane id=":1205_2_0" index="0" speed="13.89" length="11.19" shape="695.41,555.11 684.87,558.88"/>
    </edge>
    <edge id=":1205_3" function="internal">
        <lane id=":1205_3_0" index="0" speed="6.39" length="4.09" shape="695.41,555.11 692.99,555.67 691.41,555.38"/>
    </edge>
    <edge id=":1205_4" function="internal">
        <lane id=":1205_4_0" index="0" speed="6.39" length="4.89" shape="691.41,555.38 691.01,555.30 689.47,554.01 688.36,551.80"/>
    </edge>
    <edge id=":1206_0" function="internal">
        <lane id=":1206_0_0" index="0" speed="13.89" length="11.23" shape="761.71,531.37 751.02,534.81"/>
    </edge>
    <edge id=":1206_1" function="internal">
        <lane id=":1206_1_0" index="0" speed="6.49" length="9.05" shape="761.71,531.37 759.27,531.81 757.28,531.36 755.74,530.02 754.65,527.78"/>
    </edge>
    <edge id=":1207_0" function="internal">
        <lane id=":1207_0_0" index="0" speed="13.89" length="10.17" shape="527.58,516.92 527.19,513.95 527.00,511.87 526.91,509.78 526.79,506.79"/>
    </edge>
    <edge id=":1207_1" function="internal">
        <lane id=":1207_1_0" index="0" speed="6.83" length="8.69" shape="527.58,516.92 527.62,514.78 528.41,513.00 529.94,511.58 532.22,510.53"/>
    </edge>
    <edge id=":1209_0" function="internal">
        <lane id=":1209_0_0" index="0" speed="13.89" length="8.39" shape="1112.71,502.25 1110.73,510.41"/>
    </edge>
    <edge id=":1209_1" function="internal">
        <lane id=":1209_1_0" index="0" speed="6.51" length="9.09" shape="1112.71,502.25 1111.83,504.56 1110.40,506.03 1108.44,506.65 1105.94,506.43"/>
    </edge>
    <edge id=":1210_0" function="internal">
        <lane id=":1210_0_0" index="0" speed="6.41" length="9.04" shape="841.68,508.56 840.56,506.33 839.01,505.03 837.02,504.66 834.59,505.22"/>
    </edge>
    <edge id=":1210_1" function="internal">
        <lane id=":1210_1_0" index="0" speed="13.89" length="14.48" shape="848.21,500.31 834.59,505.22"/>
    </edge>
    <edge id=":1210_2" function="internal">
        <lane id=":1210_2_0" index="0" speed="7.39" length="7.59" shape="840.97,496.77 841.30,499.26 840.35,501.50 838.37,503.26"/>
    </edge>
    <edge id=":1210_3" function="internal">
        <lane id=":1210_3_0" index="0" speed="7.39" length="4.27" shape="838.37,503.26 838.11,503.48 834.59,505.22"/>
    </edge>
    <edge id=":1211_0" function="internal">
        <lane id=":1211_0_0" index="0" speed="13.89" length="11.04" shape="596.85,494.98 593.57,484.44"/>
    </edge>
    <edge id=":1211_1" function="internal">
        <lane id=":1211_1_0" index="0" speed="6.48" length="4.00" shape="596.85,494.98 596.43,492.59 596.79,491.06"/>
    </edge>
    <edge id=":1211_4" function="internal">
        <lane id=":1211_4_0" index="0" speed="6.48" length="4.94" shape="596.79,491.06 596.89,490.62 598.22,489.10 600.43,488.01"/>
    </edge>
    <edge id=":1211_2" function="internal">
        <lane id=":1211_2_0" index="0" speed="6.55" length="9.00" shape="589.91,491.48 592.11,490.39 593.46,488.85 593.94,486.87 593.57,484.44"/>
    </edge>
    <edge id=":1211_3" function="internal">
        <lane id=":1211_3_0" index="0" speed="13.89" length="11.08" shape="589.91,491.48 600.43,488.01"/>
    </edge>
    <edge id=":1213_0" function="internal">
        <lane id=":1213_0_0" index="0" speed="13.89" length="11.26" shape="663.02,473.42 659.42,462.76"/>
    </edge>
    <edge id=":1213_1" function="internal">
        <lane id=":1213_1_0" index="0" speed="6.66" length="4.23" shape="663.02,473.42 662.63,470.98 663.02,469.27"/>
    </edge>
    <edge id=":1213_4" function="internal">
        <lane id=":1213_4_0" index="0" speed="6.66" length="4.88" shape="663.02,469.27 663.09,468.96 664.41,467.36 666.59,466.17"/>
    </edge>
    <edge id=":1213_2" function="internal">
        <lane id=":1213_2_0" index="0" speed="6.45" length="9.03" shape="655.93,469.82 658.16,468.72 659.48,467.18 659.90,465.19 659.42,462.76"/>
    </edge>
    <edge id=":1213_3" function="internal">
        <lane id=":1213_3_0" index="0" speed="13.89" length="11.27" shape="655.93,469.82 666.59,466.17"/>
    </edge>
    <edge id=":1217_0" function="internal">
        <lane id=":1217_0_0" index="0" speed="13.89" length="11.14" shape="729.08,448.83 725.48,438.28"/>
    </edge>
    <edge id=":1217_1" function="internal">
        <lane id=":1217_1_0" index="0" speed="6.53" length="4.01" shape="729.08,448.83 728.64,446.37 728.97,444.89"/>
    </edge>
    <edge id=":1217_4" function="internal">
        <lane id=":1217_4_0" index="0" speed="6.53" length="5.00" shape="728.97,444.89 729.08,444.36 730.38,442.81 732.56,441.71"/>
    </edge>
    <edge id=":1217_2" function="internal">
        <lane id=":1217_2_0" index="0" speed="6.54" length="9.01" shape="722.12,445.46 724.28,444.29 725.56,442.70 725.96,440.69 725.48,438.28"/>
    </edge>
    <edge id=":1217_3" function="internal">
        <lane id=":1217_3_0" index="0" speed="13.89" length="11.10" shape="722.12,445.46 732.56,441.71"/>
    </edge>
    <edge id=":1219_0" function="internal">
        <lane id=":1219_0_0" index="0" speed="6.48" length="9.03" shape="808.79,410.40 809.92,412.60 811.49,413.90 813.49,414.31 815.92,413.81"/>
    </edge>
    <edge id=":1219_1" function="internal">
        <lane id=":1219_1_0" index="0" speed="13.89" length="11.24" shape="808.79,410.40 812.56,420.98"/>
    </edge>
    <edge id=":1219_2" function="internal">
        <lane id=":1219_2_0" index="0" speed="13.89" length="11.25" shape="805.29,417.49 815.92,413.81"/>
    </edge>
    <edge id=":1219_3" function="internal">
        <lane id=":1219_3_0" index="0" speed="6.63" length="4.20" shape="805.29,417.49 807.74,417.06 809.41,417.42"/>
    </edge>
    <edge id=":1219_4" function="internal">
        <lane id=":1219_4_0" index="0" speed="6.63" length="4.92" shape="809.41,417.42 809.77,417.50 811.37,418.81 812.56,420.98"/>
    </edge>
    <edge id=":1220_0" function="internal">
        <lane id=":1220_0_0" index="0" speed="7.34" length="3.38" shape="572.68,415.29 572.16,412.80 572.18,411.97"/>
    </edge>
    <edge id=":1220_2" function="internal">
        <lane id=":1220_2_0" index="0" speed="7.34" length="4.97" shape="572.18,411.97 572.21,410.67 572.83,408.93 574.02,407.56"/>
    </edge>
    <edge id=":1220_1" function="internal">
        <lane id=":1220_1_0" index="0" speed="13.89" length="9.31" shape="567.35,414.02 569.23,412.00 570.52,410.62 571.90,409.32 574.02,407.56"/>
    </edge>
    <edge id=":1221_0" function="internal">
        <lane id=":1221_0_0" index="0" speed="13.89" length="10.36" shape="1133.06,411.93 1130.88,422.06"/>
    </edge>
    <edge id=":1221_1" function="internal">
        <lane id=":1221_1_0" index="0" speed="6.55" length="4.01" shape="1126.67,415.36 1128.96,416.30 1130.06,417.38"/>
    </edge>
    <edge id=":1221_2" function="internal">
        <lane id=":1221_2_0" index="0" speed="6.55" length="4.94" shape="1130.06,417.38 1130.42,417.73 1131.06,419.65 1130.88,422.06"/>
    </edge>
    <edge id=":1223_0" function="internal">
        <lane id=":1223_0_0" index="0" speed="6.71" length="3.71" shape="629.05,376.72 628.53,374.32 628.67,373.08"/>
    </edge>
    <edge id=":1223_2" function="internal">
        <lane id=":1223_2_0" index="0" speed="6.71" length="4.95" shape="628.67,373.08 628.77,372.29 629.78,370.62 631.56,369.32"/>
    </edge>
    <edge id=":1223_1" function="internal">
        <lane id=":1223_1_0" index="0" speed="13.89" length="10.29" shape="622.57,374.32 631.56,369.32"/>
    </edge>
    <edge id=":1227_0" function="internal">
        <lane id=":1227_0_0" index="0" speed="6.57" length="4.25" shape="692.76,345.44 692.23,342.88 692.52,341.27"/>
    </edge>
    <edge id=":1227_2" function="internal">
        <lane id=":1227_2_0" index="0" speed="6.57" length="5.04" shape="692.52,341.27 692.61,340.79 693.89,339.17 696.09,338.02"/>
    </edge>
    <edge id=":1227_1" function="internal">
        <lane id=":1227_1_0" index="0" speed="13.89" length="11.38" shape="685.62,342.46 688.50,341.09 690.78,340.05 693.10,339.10 696.09,338.02"/>
    </edge>
    <edge id=":1229_0" function="internal">
        <lane id=":1229_0_0" index="0" speed="13.89" length="11.06" shape="769.66,314.04 780.38,311.30"/>
    </edge>
    <edge id=":1229_1" function="internal">
        <lane id=":1229_1_0" index="0" speed="6.61" length="9.10" shape="769.66,314.04 772.04,313.69 774.01,314.21 775.57,315.61 776.72,317.89"/>
    </edge>
    <edge id=":1232_0" function="internal">
        <lane id=":1232_0_0" index="0" speed="13.89" length="4.27" shape="1152.49,328.53 1151.99,329.70 1151.66,330.50 1151.39,331.32 1151.07,332.55"/>
    </edge>
    <edge id=":1232_1" function="internal">
        <lane id=":1232_1_0" index="0" speed="5.10" length="1.80" shape="1148.82,328.57 1150.11,329.08 1150.40,329.38"/>
    </edge>
    <edge id=":1232_2" function="internal">
        <lane id=":1232_2_0" index="0" speed="5.10" length="3.43" shape="1150.40,329.38 1150.91,329.91 1151.23,331.06 1151.07,332.55"/>
    </edge>
    <edge id=":1235_0" function="internal">
        <lane id=":1235_0_0" index="0" speed="6.67" length="8.54" shape="1135.11,402.35 1134.97,404.55 1135.59,406.39 1136.96,407.85 1139.08,408.95"/>
    </edge>
    <edge id=":1235_1" function="internal">
        <lane id=":1235_1_0" index="0" speed="13.89" length="9.59" shape="1135.11,402.35 1133.10,411.73"/>
    </edge>
    <edge id=":1236_0" function="internal">
        <lane id=":1236_0_0" index="0" speed="6.71" length="8.44" shape="1144.24,360.28 1144.11,362.43 1144.72,364.24 1146.07,365.72 1148.15,366.86"/>
    </edge>
    <edge id=":1236_1" function="internal">
        <lane id=":1236_1_0" index="0" speed="13.89" length="10.01" shape="1144.24,360.28 1142.13,370.06"/>
    </edge>
    <edge id=":1251_0" function="internal">
        <lane id=":1251_0_0" index="0" speed="6.45" length="9.03" shape="1115.54,514.62 1113.06,514.39 1111.13,515.01 1109.73,516.49 1108.87,518.82"/>
    </edge>
    <edge id=":1251_1" function="internal">
        <lane id=":1251_1_0" index="0" speed="13.89" length="8.41" shape="1110.68,510.60 1108.87,518.82"/>
    </edge>
    <edge id=":1306_0" function="internal">
        <lane id=":1306_0_0" index="0" speed="13.89" length="10.84" shape="951.73,473.54 948.66,473.01 946.37,472.55 944.07,472.32 940.99,472.45"/>
    </edge>
    <edge id=":1306_1" function="internal">
        <lane id=":1306_1_0" index="0" speed="6.55" length="8.85" shape="951.73,473.54 949.45,472.87 947.89,471.61 947.06,469.76 946.95,467.33"/>
    </edge>
    <edge id=":1314_0" function="internal">
        <lane id=":1314_0_0" index="0" speed="13.89" length="10.97" shape="895.62,385.37 905.99,381.79"/>
    </edge>
    <edge id=":1314_1" function="internal">
        <lane id=":1314_1_0" index="0" speed="6.53" length="8.92" shape="895.62,385.37 897.99,384.90 899.96,385.30 901.55,386.57 902.74,388.72"/>
    </edge>
    <edge id=":1341_0" function="internal">
        <lane id=":1341_0_0" index="0" speed="7.85" length="6.95" shape="1426.97,593.92 1425.87,592.08 1424.69,590.70 1423.43,589.78 1422.08,589.31"/>
    </edge>
    <edge id=":1341_1" function="internal">
        <lane id=":1341_1_0" index="0" speed="13.89" length="9.29" shape="1431.33,589.43 1428.58,589.70 1426.69,589.82 1424.80,589.72 1422.08,589.31"/>
    </edge>
    <edge id=":1341_2" function="internal">
        <lane id=":1341_2_0" index="0" speed="5.98" length="4.24" shape="1427.83,585.84 1427.27,587.69 1426.13,588.88 1425.50,589.08"/>
    </edge>
    <edge id=":1341_3" function="internal">
        <lane id=":1341_3_0" index="0" speed="5.98" length="3.47" shape="1425.50,589.08 1424.40,589.43 1422.08,589.31"/>
    </edge>
    <edge id=":1342_0" function="internal">
        <lane id=":1342_0_0" index="0" speed="7.00" length="8.01" shape="1649.69,590.33 1648.44,588.91 1646.84,588.07 1644.88,587.81 1642.57,588.13"/>
    </edge>
    <edge id=":1342_1" function="internal">
        <lane id=":1342_1_0" index="0" speed="13.89" length="9.18" shape="1649.69,590.33 1644.75,582.60"/>
    </edge>
    <edge id=":1343_0" function="internal">
        <lane id=":1343_0_0" index="0" speed="13.89" length="11.28" shape="1366.50,577.70 1355.57,574.91"/>
    </edge>
    <edge id=":1343_1" function="internal">
        <lane id=":1343_1_0" index="0" speed="6.45" length="9.07" shape="1366.50,577.70 1364.17,576.82 1362.71,575.40 1362.12,573.44 1362.40,570.95"/>
    </edge>
    <edge id=":1345_0" function="internal">
        <lane id=":1345_0_0" index="0" speed="6.43" length="9.03" shape="1310.54,562.15 1308.08,561.80 1306.12,562.33 1304.67,563.75 1303.72,566.05"/>
    </edge>
    <edge id=":1345_1" function="internal">
        <lane id=":1345_1_0" index="0" speed="13.89" length="11.28" shape="1310.54,562.15 1299.66,559.20"/>
    </edge>
    <edge id=":1345_2" function="internal">
        <lane id=":1345_2_0" index="0" speed="13.89" length="11.32" shape="1306.48,555.07 1303.72,566.05"/>
    </edge>
    <edge id=":1345_3" function="internal">
        <lane id=":1345_3_0" index="0" speed="6.55" length="4.29" shape="1306.48,555.07 1305.55,557.36 1304.27,558.65"/>
    </edge>
    <edge id=":1345_4" function="internal">
        <lane id=":1345_4_0" index="0" speed="6.55" length="4.78" shape="1304.27,558.65 1304.11,558.81 1302.14,559.42 1299.66,559.20"/>
    </edge>
    <edge id=":1346_0" function="internal">
        <lane id=":1346_0_0" index="0" speed="13.89" length="8.87" shape="1515.91,557.73 1507.49,560.51"/>
    </edge>
    <edge id=":1346_1" function="internal">
        <lane id=":1346_1_0" index="0" speed="13.01" length="8.86" shape="1515.91,557.73 1513.42,558.25 1511.65,558.05 1509.87,557.41 1507.35,556.59"/>
    </edge>
    <edge id=":1347_0" function="internal">
        <lane id=":1347_0_0" index="0" speed="6.52" length="8.99" shape="1248.26,547.06 1245.82,546.84 1243.88,547.46 1242.45,548.91 1241.53,551.19"/>
    </edge>
    <edge id=":1347_1" function="internal">
        <lane id=":1347_1_0" index="0" speed="13.89" length="14.29" shape="1248.26,547.06 1234.37,543.70"/>
    </edge>
    <edge id=":1347_2" function="internal">
        <lane id=":1347_2_0" index="0" speed="7.25" length="11.62" shape="1248.26,547.06 1244.62,545.84 1242.22,544.20 1241.05,542.13 1241.12,539.64"/>
    </edge>
    <edge id=":1348_0" function="internal">
        <lane id=":1348_0_0" index="0" speed="6.51" length="9.03" shape="1442.65,541.82 1440.18,541.60 1438.24,542.22 1436.81,543.68 1435.91,545.99"/>
    </edge>
    <edge id=":1348_1" function="internal">
        <lane id=":1348_1_0" index="0" speed="13.89" length="11.24" shape="1438.60,535.07 1435.91,545.99"/>
    </edge>
    <edge id=":1349_0" function="internal">
        <lane id=":1349_0_0" index="0" speed="7.22" length="7.94" shape="1577.91,478.47 1576.72,477.14 1575.14,476.31 1573.17,475.99 1570.81,476.17"/>
    </edge>
    <edge id=":1349_1" function="internal">
        <lane id=":1349_1_0" index="0" speed="13.89" length="8.97" shape="1577.91,478.47 1572.88,471.05"/>
    </edge>
    <edge id=":1351_0" function="internal">
        <lane id=":1351_0_0" index="0" speed="6.42" length="9.04" shape="1461.48,470.83 1459.02,470.44 1457.06,470.95 1455.59,472.35 1454.62,474.64"/>
    </edge>
    <edge id=":1351_1" function="internal">
        <lane id=":1351_1_0" index="0" speed="13.89" length="11.48" shape="1461.48,470.83 1458.42,469.89 1456.00,469.13 1453.61,468.28 1450.64,467.09"/>
    </edge>
    <edge id=":1352_0" function="internal">
        <lane id=":1352_0_0" index="0" speed="13.89" length="9.63" shape="1400.24,444.21 1391.61,439.92"/>
    </edge>
    <edge id=":1352_1" function="internal">
        <lane id=":1352_1_0" index="0" speed="6.71" length="8.23" shape="1394.32,446.92 1394.64,444.58 1394.30,442.63 1393.29,441.08 1391.61,439.92"/>
    </edge>
    <edge id=":1354_0" function="internal">
        <lane id=":1354_0_0" index="0" speed="6.11" length="9.06" shape="1346.35,418.29 1343.91,417.52 1341.96,417.80 1340.50,419.13 1339.54,421.50"/>
    </edge>
    <edge id=":1354_1" function="internal">
        <lane id=":1354_1_0" index="0" speed="13.89" length="11.89" shape="1346.35,418.29 1335.59,413.25"/>
    </edge>
    <edge id=":1356_0" function="internal">
        <lane id=":1356_0_0" index="0" speed="13.89" length="9.24" shape="1285.80,388.92 1277.80,384.30"/>
    </edge>
    <edge id=":1356_1" function="internal">
        <lane id=":1356_1_0" index="0" speed="6.88" length="8.06" shape="1280.03,391.41 1280.40,389.13 1280.15,387.19 1279.29,385.58 1277.80,384.30"/>
    </edge>
    <edge id=":1360_0" function="internal">
        <lane id=":1360_0_0" index="0" speed="13.89" length="12.07" shape="1205.41,339.98 1202.77,338.01 1200.64,336.29 1198.62,334.43 1196.33,332.07"/>
    </edge>
    <edge id=":1360_1" function="internal">
        <lane id=":1360_1_0" index="0" speed="5.50" length="4.08" shape="1202.16,330.05 1201.56,333.02 1200.85,333.81"/>
    </edge>
    <edge id=":1360_2" function="internal">
        <lane id=":1360_2_0" index="0" speed="5.50" length="5.51" shape="1200.85,333.81 1200.38,334.34 1198.64,334.03 1196.33,332.07"/>
    </edge>
    <edge id=":1361_0" function="internal">
        <lane id=":1361_0_0" index="0" speed="10.23" length="7.01" shape="1189.25,324.50 1187.89,322.90 1186.91,321.77 1185.73,320.99 1183.80,320.46"/>
    </edge>
    <edge id=":1361_1" function="internal">
        <lane id=":1361_1_0" index="0" speed="13.89" length="6.99" shape="1190.75,320.59 1188.69,320.77 1187.26,320.86 1185.84,320.77 1183.80,320.46"/>
    </edge>
    <edge id=":1363_0" function="internal">
        <lane id=":1363_0_0" index="0" speed="12.98" length="7.63" shape="1179.02,319.12 1176.90,318.51 1175.36,318.51 1173.79,318.86 1171.56,319.32"/>
    </edge>
    <edge id=":1363_1" function="internal">
        <lane id=":1363_1_0" index="0" speed="13.89" length="7.60" shape="1179.02,319.12 1176.94,318.27 1175.59,317.53 1174.31,316.65 1172.47,315.34"/>
    </edge>
    <edge id=":1364_0" function="internal">
        <lane id=":1364_0_0" index="0" speed="8.38" length="6.73" shape="1205.26,314.91 1204.39,315.86 1203.71,317.20 1203.23,318.93 1202.93,321.05"/>
    </edge>
    <edge id=":1364_1" function="internal">
        <lane id=":1364_1_0" index="0" speed="13.89" length="6.97" shape="1205.26,314.91 1203.62,316.16 1202.43,316.94 1201.16,317.57 1199.26,318.37"/>
    </edge>
    <edge id=":1368_0" function="internal">
        <lane id=":1368_0_0" index="0" speed="9.63" length="44.71" shape="1222.22,313.80 1207.08,306.68 1201.67,304.90 1206.01,308.46 1220.10,317.36"/>
    </edge>
    <edge id=":1368_1" function="internal">
        <lane id=":1368_1_0" index="0" speed="9.47" length="15.81" shape="1222.22,313.80 1217.22,311.74 1213.08,310.89 1209.80,311.25 1207.38,312.80"/>
    </edge>
    <edge id=":1368_2" function="internal">
        <lane id=":1368_2_0" index="0" speed="8.79" length="15.85" shape="1212.57,304.98 1211.99,308.03 1213.04,311.11 1215.75,314.22 1220.10,317.36"/>
    </edge>
    <edge id=":1368_3" function="internal">
        <lane id=":1368_3_0" index="0" speed="13.89" length="9.46" shape="1212.57,304.98 1211.37,307.51 1210.43,309.19 1209.26,310.72 1207.38,312.80"/>
    </edge>
    <edge id=":1369_0" function="internal">
        <lane id=":1369_0_0" index="0" speed="12.94" length="10.05" shape="1163.11,301.70 1162.08,298.94 1161.72,296.91 1161.90,294.84 1162.50,291.93"/>
    </edge>
    <edge id=":1369_1" function="internal">
        <lane id=":1369_1_0" index="0" speed="13.89" length="9.91" shape="1159.17,301.24 1160.29,298.51 1161.11,296.67 1161.79,294.78 1162.50,291.93"/>
    </edge>
    <edge id=":1370_0" function="internal">
        <lane id=":1370_0_0" index="0" speed="8.00" length="6.87" shape="1218.39,290.88 1216.75,292.26 1215.57,293.63 1214.84,294.99 1214.56,296.34"/>
    </edge>
    <edge id=":1370_1" function="internal">
        <lane id=":1370_1_0" index="0" speed="13.89" length="7.18" shape="1213.90,289.23 1214.36,291.31 1214.58,292.75 1214.63,294.21 1214.56,296.34"/>
    </edge>
    <edge id=":1371_0" function="internal">
        <lane id=":1371_0_0" index="0" speed="8.84" length="6.65" shape="1163.28,288.25 1163.50,286.37 1163.20,285.06 1162.47,283.83 1161.37,282.17"/>
    </edge>
    <edge id=":1371_1" function="internal">
        <lane id=":1371_1_0" index="0" speed="13.89" length="6.63" shape="1163.28,288.25 1163.72,286.34 1164.14,285.06 1164.75,283.85 1165.76,282.16"/>
    </edge>
    <edge id=":1375_0" function="internal">
        <lane id=":1375_0_0" index="0" speed="8.00" length="6.83" shape="1170.81,270.40 1172.77,271.22 1174.52,271.65 1176.05,271.68 1177.38,271.32"/>
    </edge>
    <edge id=":1375_1" function="internal">
        <lane id=":1375_1_0" index="0" speed="13.89" length="7.11" shape="1171.43,275.15 1173.03,273.77 1174.20,272.92 1175.47,272.22 1177.38,271.32"/>
    </edge>
    <edge id=":1376_0" function="internal">
        <lane id=":1376_0_0" index="0" speed="13.89" length="8.72" shape="1194.03,266.02 1195.47,268.16 1196.60,269.54 1197.97,270.68 1200.13,272.08"/>
    </edge>
    <edge id=":1376_1" function="internal">
        <lane id=":1376_1_0" index="0" speed="13.89" length="8.64" shape="1191.97,269.50 1194.48,270.02 1196.24,270.32 1197.91,270.87 1200.13,272.08"/>
    </edge>
    <edge id=":1377_0" function="internal">
        <lane id=":1377_0_0" index="0" speed="7.30" length="8.78" shape="1433.90,210.14 1432.51,208.33 1430.80,207.18 1428.77,206.69 1426.43,206.87"/>
    </edge>
    <edge id=":1377_1" function="internal">
        <lane id=":1377_1_0" index="0" speed="13.89" length="10.06" shape="1433.90,210.14 1428.88,201.43"/>
    </edge>
    <edge id=":1377_2" function="internal">
        <lane id=":1377_2_0" index="0" speed="13.89" length="9.84" shape="1435.88,204.25 1433.17,205.33 1431.26,205.91 1429.30,206.31 1426.43,206.87"/>
    </edge>
    <edge id=":1377_3" function="internal">
        <lane id=":1377_3_0" index="0" speed="6.58" length="3.07" shape="1435.88,204.25 1433.82,204.76 1432.88,204.61"/>
    </edge>
    <edge id=":1377_4" function="internal">
        <lane id=":1377_4_0" index="0" speed="6.58" length="5.31" shape="1432.88,204.61 1431.97,204.46 1430.32,203.35 1428.88,201.43"/>
    </edge>
    <edge id=":1379_0" function="internal">
        <lane id=":1379_0_0" index="0" speed="7.54" length="8.74" shape="1448.73,194.80 1447.41,196.87 1446.78,198.92 1446.85,200.94 1447.60,202.93"/>
    </edge>
    <edge id=":1379_1" function="internal">
        <lane id=":1379_1_0" index="0" speed="13.89" length="10.06" shape="1448.73,194.80 1446.83,197.09 1445.36,198.52 1443.71,199.73 1441.22,201.38"/>
    </edge>
    <edge id=":1379_2" function="internal">
        <lane id=":1379_2_0" index="0" speed="13.89" length="10.23" shape="1442.61,194.00 1447.60,202.93"/>
    </edge>
    <edge id=":1379_3" function="internal">
        <lane id=":1379_3_0" index="0" speed="6.48" length="3.71" shape="1442.61,194.00 1443.52,196.22 1443.56,197.52"/>
    </edge>
    <edge id=":1379_4" function="internal">
        <lane id=":1379_4_0" index="0" speed="6.48" length="4.72" shape="1443.56,197.52 1443.58,198.19 1442.82,199.91 1441.22,201.38"/>
    </edge>
    <edge id=":1390_0" function="internal">
        <lane id=":1390_0_0" index="0" speed="7.98" length="7.42" shape="1554.25,442.66 1553.29,441.55 1551.88,440.69 1550.02,440.09 1547.70,439.75"/>
    </edge>
    <edge id=":1390_1" function="internal">
        <lane id=":1390_1_0" index="0" speed="13.89" length="7.97" shape="1554.25,442.66 1550.27,435.75"/>
    </edge>
    <edge id=":1391_0" function="internal">
        <lane id=":1391_0_0" index="0" speed="6.92" length="8.06" shape="1611.47,531.79 1610.17,530.35 1608.53,529.54 1606.57,529.34 1604.29,529.76"/>
    </edge>
    <edge id=":1391_1" function="internal">
        <lane id=":1391_1_0" index="0" speed="13.89" length="9.26" shape="1611.47,531.79 1606.46,524.00"/>
    </edge>
    <edge id=":1394_0" function="internal">
        <lane id=":1394_0_0" index="0" speed="11.30" length="8.58" shape="1549.72,386.95 1551.13,388.94 1552.55,389.90 1554.31,390.51 1556.71,391.40"/>
    </edge>
    <edge id=":1394_1" function="internal">
        <lane id=":1394_1_0" index="0" speed="13.89" length="8.61" shape="1549.72,386.95 1554.10,394.37"/>
    </edge>
    <edge id=":1396_0" function="internal">
        <lane id=":1396_0_0" index="0" speed="13.89" length="8.42" shape="1388.02,178.36 1387.74,175.88 1387.55,174.17 1387.51,172.46 1387.72,169.98"/>
    </edge>
    <edge id=":1396_1" function="internal">
        <lane id=":1396_1_0" index="0" speed="9.83" length="2.68" shape="1387.08,172.54 1387.45,171.85 1387.60,171.33 1387.66,170.78 1387.72,169.98"/>
    </edge>
    <edge id=":1397_0" function="internal">
        <lane id=":1397_0_0" index="0" speed="13.89" length="9.80" shape="1405.91,203.01 1403.24,201.93 1401.30,201.51 1399.29,201.33 1396.39,200.98"/>
    </edge>
    <edge id=":1397_1" function="internal">
        <lane id=":1397_1_0" index="0" speed="13.89" length="9.85" shape="1405.91,203.01 1403.26,201.77 1401.49,200.79 1399.94,199.52 1397.98,197.38"/>
    </edge>
    <edge id=":1401_0" function="internal">
        <lane id=":1401_0_0" index="0" speed="13.89" length="13.63" shape="1518.08,363.33 1517.44,359.83 1516.90,356.56 1516.09,353.40 1514.65,350.21"/>
    </edge>
    <edge id=":1401_1" function="internal">