<?xml version="1.0" encoding="UTF-8"?>

<!-- generated on 2025-10-06 13:17:59.428801 by randomTrips.py UNKNOWN
<configuration>
    <net-file value="scenarios/from_api/api.net.xml"/>
    <output-trip-file value="scenarios/from_api/api.trips.xml"/>
    <route-file value="scenarios/from_api/api.rou.xml"/>
    <fringe-factor value="10"/>
    <end value="5000.0"/>
    <period value="0.72"/>
</configuration>
-->

<routes xmlns:xsi="http://www.w3.org/2001/XMLSchema-instance" xsi:noNamespaceSchemaLocation="http://sumo.dlr.de/xsd/routes_file.xsd">
    <trip id="0" depart="0.00" from="1152923703630104274" to="1152923703630104282"/>
    <trip id="1" depart="0.72" from="1155175503443789174" to="1155175503443789554"/>
    <trip id="2" depart="1.44" from="1152923703630104629" to="1152923703630103751"/>
    <trip id="3" depart="2.16" from="1152923703630104171" to="1155175503443789012"/>
    <trip id="4" depart="2.88" from="1152923703630103926" to="1152923703630103924"/>
    <trip id="5" depart="3.60" from="1152923703630103919" to="1152923703630104293"/>
    <trip id="6" depart="4.32" from="1152923703630104052" to="1152923703630104678"/>
    <trip id="7" depart="5.04" from="1152923703630104182" to="1152923703630103755"/>
    <trip id="8" depart="5.76" from="1152923703630104171" to="1159679103071160020"/>
    <trip id="9" depart="6.48" from="1152923703630104453" to="1152923703630104274"/>
    <trip id="10" depart="7.20" from="1152923703630103926" to="1152923703630103869"/>
    <trip id="11" depart="7.92" from="1152923703630103947" to="1155175503443789447"/>
    <trip id="12" depart="8.64" from="6919783026478024432" to="1157427303257474443"/>
    <trip id="13" depart="9.36" from="1152923703630103693" to="1152923703630104618"/>
    <trip id="14" depart="10.08" from="1159679103071159640" to="1159679103071160020"/>
    <trip id="15" depart="10.80" from="1152923703630103926" to="1155175503443789011"/>
    <trip id="16" depart="11.52" from="1152923703630104629" to="1152923703630104251"/>
    <trip id="17" depart="12.24" from="1152923703630104099" to="1152923703630104576"/>
    <trip id="18" depart="12.96" from="1152923703630104629" to="1155175503443789082"/>
    <trip id="19" depart="13.68" from="1152923703630103998" to="1152923703630104285"/>
    <trip id="20" depart="14.40" from="1152923703630104199" to="1152923703630104276"/>
    <trip id="21" depart="15.12" from="1152923703630103884" to="1155175503443789447"/>
    <trip id="22" depart="15.84" from="1155175503443789174" to="1155175503443789554"/>
    <trip id="23" depart="16.56" from="1152923703630104216" to="1157427303257475076"/>
    <trip id="24" depart="17.28" from="1152923703630104659" to="1152923703630104251"/>
    <trip id="25" depart="18.00" from="1152923703630104245" to="1155175503443790049"/>
    <trip id="26" depart="18.72" from="1152923703630104648" to="1152923703630104789"/>
    <trip id="27" depart="19.44" from="1152923703630104791" to="1155175503443789554"/>
    <trip id="28" depart="20.16" from="1152923703630104216" to="1152923703630103947"/>
    <trip id="29" depart="20.88" from="1152923703630104791" to="1155175503443789447"/>
    <trip id="30" depart="21.60" from="1152923703630104797" to="6919783026478024694"/>
    <trip id="31" depart="22.32" from="1157427303257474201" to="1152923703630104454"/>
    <trip id="32" depart="23.04" from="1152923703630103937" to="1155175503443789139"/>
    <trip id="33" depart="23.76" from="1152923703630104660" to="1157427303257474792"/>
    <trip id="34" depart="24.48" from="1152923703630104629" to="1152923703630103730"/>
    <trip id="35" depart="25.20" from="1152923703630103907" to="1157427303257474443"/>
    <trip id="36" depart="25.92" from="6919783026478024432" to="1155175503443789090"/>
    <trip id="37" depart="26.64" from="1152923703630104216" to="1152923703630103924"/>
    <trip id="38" depart="27.36" from="1152923703630104468" to="1155175503443789447"/>
    <trip id="39" depart="28.08" from="1155175503443789926" to="1157427303257474443"/>
    <trip id="40" depart="28.80" from="1152923703630104316" to="1157427303257475076"/>
    <trip id="41" depart="29.52" from="1155175503443789926" to="1152923703630104335"/>
    <trip id="42" depart="30.24" from="1157427303257475072" to="1157427303257474414"/>
    <trip id="43" depart="30.96" from="1152923703630104171" to="1157427303257474229"/>
    <trip id="44" depart="31.68" from="1155175503443789174" to="1152923703630104580"/>
    <trip id="45" depart="32.40" from="1152923703630104797" to="1155175503443789012"/>
    <trip id="46" depart="33.12" from="1152923703630103693" to="1157427303257475076"/>
    <trip id="47" depart="33.84" from="1152923703630104301" to="1157427303257474401"/>
    <trip id="48" depart="34.56" from="1155175503443789170" to="1152923703630104460"/>
    <trip id="49" depart="35.28" from="1152923703630104301" to="1155175503443789090"/>
    <trip id="50" depart="36.00" from="1152923703630104819" to="1152923703630104801"/>
    <trip id="51" depart="36.72" from="1152923703630104659" to="1157427303257474792"/>
    <trip id="52" depart="37.44" from="1152923703630103926" to="1155175503443789082"/>
    <trip id="53" depart="38.16" from="1152923703630104812" to="1152923703630104641"/>
    <trip id="54" depart="38.88" from="1152923703630104099" to="1152923703630103745"/>
    <trip id="55" depart="39.60" from="1152923703630104216" to="1155175503443788993"/>
    <trip id="56" depart="40.32" from="1157427303257474415" to="1152923703630103919"/>
    <trip id="57" depart="41.04" from="1152923703630104576" to="1155175503443789447"/>
    <trip id="58" depart="41.76" from="1152923703630104667" to="1152923703630104311"/>
    <trip id="59" depart="42.48" from="1155175503443789342" to="1155175503443789926"/>
    <trip id="60" depart="43.20" from="1152923703630104093" to="1159679103071160020"/>
    <trip id="61" depart="43.92" from="1152923703630104216" to="1157427303257474401"/>
    <trip id="62" depart="44.64" from="1152923703630104791" to="1159679103071160020"/>
    <trip id="63" depart="45.36" from="1155175503443789147" to="1155175503443789012"/>
    <trip id="64" depart="46.08" from="1157427303257474243" to="1155175503443789090"/>
    <trip id="65" depart="46.80" from="1152923703630104659" to="1152923703630104335"/>
    <trip id="66" depart="47.52" from="1155175503443789533" to="1155175503443789082"/>
    <trip id="67" depart="48.24" from="1152923703630104270" to="1152923703630104618"/>
    <trip id="68" depart="48.96" from="1152923703630104468" to="1155175503443789090"/>
    <trip id="69" depart="49.68" from="1152923703630104629" to="1157427303257474792"/>
    <trip id="70" depart="50.40" from="1152923703630104441" to="1152923703630103728"/>
    <trip id="71" depart="51.12" from="1157427303257474433" to="1159679103071160020"/>
    <trip id="72" depart="51.84" from="1152923703630104171" to="1152923703630104274"/>
    <trip id="73" depart="52.56" from="1152923703630104629" to="1152923703630103748"/>
    <trip id="74" depart="53.28" from="1152923703630104171" to="1152923703630104618"/>
    <trip id="75" depart="54.00" from="1155175503443789344" to="1157427303257474370"/>
    <trip id="76" depart="54.72" from="1152923703630103737" to="1155175503443789090"/>
    <trip id="77" depart="55.44" from="1152923703630104819" to="1155175503443790049"/>
    <trip id="78" depart="56.16" from="1155175503443789340" to="1152923703630103929"/>
    <trip id="79" depart="56.88" from="1157427303257474225" to="6919783026478023867"/>
    <trip id="80" depart="57.60" from="1152923703630103947" to="1152923703630103747"/>
    <trip id="81" depart="58.32" from="1152923703630104823" to="1155175503443789447"/>
    <trip id="82" depart="59.04" from="1152923703630103998" to="6919783026478024694"/>
    <trip id="83" depart="59.76" from="1157427303257474415" to="1157427303257474237"/>
    <trip id="84" depart="60.48" from="1152923703630103936" to="1159679103071160198"/>
    <trip id="85" depart="61.20" from="1155175503443789174" to="6919783026478024017"/>
    <trip id="86" depart="61.92" from="1152923703630104245" to="1155175503443790051"/>
    <trip id="87" depart="62.64" from="1152923703630104441" to="1152923703630103748"/>
    <trip id="88" depart="63.36" from="1152923703630104316" to="1157427303257474443"/>
    <trip id="89" depart="64.08" from="1152923703630104823" to="1155175503443789539"/>
    <trip id="90" depart="64.80" from="1152923703630103926" to="1152923703630104276"/>
    <trip id="91" depart="65.52" from="1152923703630104823" to="1152923703630104478"/>
    <trip id="92" depart="66.24" from="1152923703630104779" to="1152923703630104789"/>
    <trip id="93" depart="66.96" from="1155175503443789339" to="1152923703630104618"/>
    <trip id="94" depart="67.68" from="1152923703630104099" to="1152923703630103947"/>
    <trip id="95" depart="68.40" from="1152923703630104779" to="1155175503443789894"/>
    <trip id="96" depart="69.12" from="1152923703630104099" to="1152923703630104273"/>
    <trip id="97" depart="69.84" from="1152923703630104099" to="1152923703630104287"/>
    <trip id="98" depart="70.56" from="1152923703630104095" to="1152923703630103734"/>
    <trip id="99" depart="71.28" from="1157427303257474866" to="1155175503443789011"/>
    <trip id="100" depart="72.00" from="1152923703630104099" to="1152923703630103873"/>
    <trip id="101" depart="72.72" from="6919783026478024704" to="1155175503443789011"/>
    <trip id="102" depart="73.44" from="1152923703630103905" to="1155175503443789447"/>
    <trip id="103" depart="74.16" from="1155175503443789174" to="1159679103071160020"/>
    <trip id="104" depart="74.88" from="1152923703630104092" to="1152923703630103922"/>
    <trip id="105" depart="75.60" from="1152923703630104823" to="1157427303257475076"/>
    <trip id="106" depart="76.32" from="1152923703630104629" to="1155175503443789090"/>
    <trip id="107" depart="77.04" from="1152923703630104058" to="1152923703630104551"/>
    <trip id="108" depart="77.76" from="1155175503443789340" to="1155175503443789300"/>
    <trip id="109" depart="78.48" from="6919783026478024704" to="1155175503443789012"/>
    <trip id="110" depart="79.20" from="1152923703630103926" to="6919783026478023865"/>
    <trip id="111" depart="79.92" from="6919783026478024704" to="6924286626105394897"/>
    <trip id="112" depart="80.64" from="1152923703630104659" to="1155175503443789539"/>
    <trip id="113" depart="81.36" from="1152923703630104328" to="1152923703630104618"/>
    <trip id="114" depart="82.08" from="1152923703630104291" to="1159679103071160020"/>
    <trip id="115" depart="82.80" from="1152923703630104464" to="1155175503443789082"/>
    <trip id="116" depart="83.52" from="1155175503443789348" to="1155175503443789447"/>
    <trip id="117" depart="84.24" from="1152923703630103998" to="6919783026478024415"/>
    <trip id="118" depart="84.96" from="1152923703630104797" to="1152923703630104304"/>
    <trip id="119" depart="85.68" from="1157427303257474253" to="1155175503443789012"/>
    <trip id="120" depart="86.40" from="1155175503443789140" to="1155175503443789012"/>
    <trip id="121" depart="87.12" from="6919783026478024596" to="1155175503443789012"/>
    <trip id="122" depart="87.84" from="1152923703630104576" to="1157427303257475076"/>
    <trip id="123" depart="88.56" from="1152923703630103757" to="1155175503443789012"/>
    <trip id="124" depart="89.28" from="1152923703630104778" to="1152923703630104798"/>
    <trip id="125" depart="90.00" from="1152923703630104441" to="1152923703630104618"/>
    <trip id="126" depart="90.72" from="1157427303257475072" to="1152923703630103760"/>
    <trip id="127" depart="91.44" from="1152923703630103880" to="1155175503443789447"/>
    <trip id="128" depart="92.16" from="1152923703630103926" to="1155175503443789447"/>
    <trip id="129" depart="92.88" from="1157427303257475160" to="1152923703630104795"/>
    <trip id="130" depart="93.60" from="1152923703630104781" to="1155175503443790049"/>
    <trip id="131" depart="94.32" from="1152923703630104090" to="1152923703630103922"/>
    <trip id="132" depart="95.04" from="1157427303257475072" to="1155175503443789447"/>
    <trip id="133" depart="95.76" from="6919783026478024432" to="1155175503443789554"/>
    <trip id="134" depart="96.48" from="1152923703630104812" to="1152923703630104789"/>
    <trip id="135" depart="97.20" from="1152923703630104216" to="1157427303257474401"/>
    <trip id="136" depart="97.92" from="1152923703630104099" to="1152923703630104678"/>
    <trip id="137" depart="98.64" from="1152923703630104659" to="1152923703630104299"/>
    <trip id="138" depart="99.36" from="1155175503443789174" to="1152923703630103922"/>
    <trip id="139" depart="100.08" from="1152923703630104093" to="1152923703630103999"/>
    <trip id="140" depart="100.80" from="1155175503443789174" to="6919783026478024694"/>
    <trip id="141" depart="101.52" from="1152923703630103734" to="1155175503443789090"/>
    <trip id="142" depart="102.24" from="1152923703630103947" to="1152923703630104293"/>
    <trip id="143" depart="102.96" from="1152923703630104301" to="1155175503443789011"/>
    <trip id="144" depart="103.68" from="1152923703630104576" to="1152923703630103924"/>
    <trip id="145" depart="104.40" from="6919783026478024704" to="1152923703630103755"/>
    <trip id="146" depart="105.12" from="6919783026478024704" to="1157427303257474401"/>
    <trip id="147" depart="105.84" from="1152923703630104795" to="1152923703630103739"/>
    <trip id="148" depart="106.56" from="1152923703630103880" to="1155175503443789907"/>
    <trip id="149" depart="107.28" from="1157427303257474949" to="1152923703630104618"/>
    <trip id="150" depart="108.00" from="1152923703630103699" to="1157427303257474414"/>
    <trip id="151" depart="108.72" from="1152923703630104216" to="1152923703630104618"/>
    <trip id="152" depart="109.44" from="1152923703630104092" to="1152923703630103873"/>
    <trip id="153" depart="110.16" from="1155175503443789339" to="1155175503443788993"/>
    <trip id="154" depart="110.88" from="1152923703630103947" to="1155175503443789012"/>
    <trip id="155" depart="111.60" from="6919783026478024704" to="1152923703630103834"/>
    <trip id="156" depart="112.32" from="1152923703630104823" to="1155175503443789011"/>
    <trip id="157" depart="113.04" from="1152923703630104779" to="1152923703630104798"/>
    <trip id="158" depart="113.76" from="1152923703630104797" to="1152923703630103924"/>
    <trip id="159" depart="114.48" from="1152923703630104823" to="1157427303257474401"/>
    <trip id="160" depart="115.20" from="1155175503443789170" to="1152923703630104270"/>
    <trip id="161" depart="115.92" from="1152923703630104580" to="1152923703630103924"/>
    <trip id="162" depart="116.64" from="1152923703630104629" to="1155175503443789554"/>
    <trip id="163" depart="117.36" from="1152923703630103926" to="1155175503443789703"/>
    <trip id="164" depart="118.08" from="1152923703630104372" to="1155175503443789554"/>
    <trip id="165" depart="118.80" from="1155175503443789342" to="1157427303257474443"/>
    <trip id="166" depart="119.52" from="1155175503443789170" to="6919783026478024046"/>
    <trip id="167" depart="120.24" from="1152923703630103947" to="1157427303257474401"/>
    <trip id="168" depart="120.96" from="1152923703630104823" to="1152923703630104551"/>
    <trip id="169" depart="121.68" from="1152923703630104316" to="1152923703630103728"/>
    <trip id="170" depart="122.40" from="1155175503443789339" to="1152923703630104270"/>
    <trip id="171" depart="123.12" from="1152923703630104629" to="1152923703630104652"/>
    <trip id="172" depart="123.84" from="1152923703630103926" to="1152923703630103873"/>
    <trip id="173" depart="124.56" from="1155175503443789348" to="1152923703630103929"/>
    <trip id="174" depart="125.28" from="1152923703630104093" to="1152923703630104678"/>
    <trip id="175" depart="126.00" from="1152923703630104823" to="1155175503443789012"/>
    <trip id="176" depart="126.72" from="1152923703630103764" to="1152923703630103738"/>
    <trip id="177" depart="127.44" from="6919783026478024596" to="1157427303257474421"/>
    <trip id="178" depart="128.16" from="1157427303257474378" to="1152923703630104308"/>
    <trip id="179" depart="128.88" from="1152923703630104316" to="1152923703630104618"/>
    <trip id="180" depart="129.60" from="1155175503443789174" to="1157427303257474233"/>
    <trip id="181" depart="130.32" from="1155175503443789571" to="1155175503443789011"/>
    <trip id="182" depart="131.04" from="1152923703630103880" to="1152923703630104791"/>
    <trip id="183" depart="131.76" from="1152923703630103873" to="1155175503443789012"/>
    <trip id="184" depart="132.48" from="1152923703630103874" to="1157427303257474370"/>
    <trip id="185" depart="133.20" from="1152923703630104781" to="1155175503443790049"/>
    <trip id="186" depart="133.92" from="1155175503443789926" to="1155175503443789539"/>
    <trip id="187" depart="134.64" from="1152923703630104308" to="1155175503443788993"/>
    <trip id="188" depart="135.36" from="1152923703630103879" to="1152923703630103924"/>
    <trip id="189" depart="136.08" from="1155175503443789174" to="1155175503443789539"/>
    <trip id="190" depart="136.80" from="6919783026478024432" to="1157427303257474443"/>
    <trip id="191" depart="137.52" from="1152923703630104823" to="1155175503443789082"/>
    <trip id="192" depart="138.24" from="1152923703630104819" to="1152923703630104789"/>
    <trip id="193" depart="138.96" from="1152923703630104095" to="1152923703630104251"/>
    <trip id="194" depart="139.68" from="6919783026478024704" to="1155175503443789011"/>
    <trip id="195" depart="140.40" from="1152923703630103918" to="1157427303257474401"/>
    <trip id="196" depart="141.12" from="1152923703630103926" to="1155175503443789926"/>
    <trip id="197" depart="141.84" from="1157427303257474367" to="1157427303257474474"/>
    <trip id="198" depart="142.56" from="1155175503443789919" to="1152923703630104804"/>
    <trip id="199" depart="143.28" from="6919783026478024704" to="6919783026478024694"/>
    <trip id="200" depart="144.00" from="1152923703630104441" to="1155175503443789082"/>
    <trip id="201" depart="144.72" from="1152923703630104216" to="1155175503443789539"/>
    <trip id="202" depart="145.44" from="1157427303257475160" to="1155175503443789139"/>
    <trip id="203" depart="146.16" from="1152923703630103929" to="1157427303257474401"/>
    <trip id="204" depart="146.88" from="1152923703630104629" to="1159679103071160020"/>
    <trip id="205" depart="147.60" from="1152923703630104342" to="1152923703630103747"/>
    <trip id="206" depart="148.32" from="1152923703630103871" to="1155175503443789012"/>
    <trip id="207" depart="149.04" from="1152923703630104216" to="6919783026478024694"/>
    <trip id="208" depart="149.76" from="6919783026478024596" to="1157427303257474401"/>
    <trip id="209" depart="150.48" from="1152923703630104819" to="1155175503443790049"/>
    <trip id="210" depart="151.20" from="1152923703630103919" to="1152923703630104335"/>
    <trip id="211" depart="151.92" from="1157427303257474367" to="1155175503443789090"/>
    <trip id="212" depart="152.64" from="1155175503443789174" to="1155175503443789082"/>
    <trip id="213" depart="153.36" from="1152923703630103735" to="1155175503443789082"/>
    <trip id="214" depart="154.08" from="1155175503443789174" to="1155175503443789447"/>
    <trip id="215" depart="154.80" from="1152923703630104316" to="1152923703630103842"/>
    <trip id="216" depart="155.52" from="1157427303257474824" to="1152923703630104618"/>
    <trip id="217" depart="156.24" from="6919783026478024047" to="1155175503443789782"/>
    <trip id="218" depart="156.96" from="1155175503443789174" to="1152923703630103922"/>
    <trip id="219" depart="157.68" from="1152923703630104797" to="1157427303257474237"/>
    <trip id="220" depart="158.40" from="1152923703630103919" to="1155175503443789541"/>
    <trip id="221" depart="159.12" from="1152923703630104370" to="1152923703630103834"/>
    <trip id="222" depart="159.84" from="1152923703630103907" to="1155175503443789533"/>
    <trip id="223" depart="160.56" from="1152923703630104216" to="1152923703630103929"/>
    <trip id="224" depart="161.28" from="1155175503443789174" to="1155175503443789012"/>
    <trip id="225" depart="162.00" from="1157427303257474403" to="1152923703630104618"/>
    <trip id="226" depart="162.72" from="1152923703630103998" to="1152923703630104251"/>
    <trip id="227" depart="163.44" from="1152923703630104322" to="1157427303257474443"/>
    <trip id="228" depart="164.16" from="1152923703630104096" to="6919783026478024017"/>
    <trip id="229" depart="164.88" from="1152923703630104629" to="1157427303257474792"/>
    <trip id="230" depart="165.60" from="1152923703630103873" to="1152923703630103987"/>
    <trip id="231" depart="166.32" from="1152923703630104040" to="1152923703630104151"/>
    <trip id="232" depart="167.04" from="1152923703630104323" to="1159679103071159640"/>
    <trip id="233" depart="167.76" from="1152923703630104216" to="1155175503443789502"/>
    <trip id="234" depart="168.48" from="1152923703630104301" to="1155175503443789090"/>
    <trip id="235" depart="169.20" from="1152923703630104797" to="1157427303257474401"/>
    <trip id="236" depart="169.92" from="1152923703630104823" to="1152923703630104453"/>
    <trip id="237" depart="170.64" from="1155175503443789174" to="1157427303257474415"/>
    <trip id="238" depart="171.36" from="1155175503443789502" to="1155175503443789012"/>
    <trip id="239" depart="172.08" from="1152923703630104301" to="1152923703630103741"/>
    <trip id="240" depart="172.80" from="6919783026478024704" to="1155175503443789012"/>
    <trip id="241" depart="173.52" from="1152923703630104667" to="1157427303257474443"/>
    <trip id="242" depart="174.24" from="1152923703630104629" to="1157427303257474443"/>
    <trip id="243" depart="174.96" from="1155175503443789174" to="1155175503443789907"/>
    <trip id="244" depart="175.68" from="1152923703630104282" to="6919783026478024694"/>
    <trip id="245" depart="176.40" from="6919783026478024912" to="1152923703630104753"/>
    <trip id="246" depart="177.12" from="1152923703630104099" to="1155175503443789012"/>
    <trip id="247" depart="177.84" from="1152923703630104797" to="1155175503443789082"/>
    <trip id="248" depart="178.56" from="1155175503443789174" to="1152923703630104454"/>
    <trip id="249" depart="179.28" from="1152923703630104301" to="1157427303257474226"/>
    <trip id="250" depart="180.00" from="1152923703630104379" to="1155175503443789554"/>
    <trip id="251" depart="180.72" from="1152923703630104823" to="1152923703630103747"/>
    <trip id="252" depart="181.44" from="1152923703630104659" to="6919783026478024017"/>
    <trip id="253" depart="182.16" from="6919783026478024704" to="1152923703630103924"/>
    <trip id="254" depart="182.88" from="6919783026478024596" to="1157427303257474443"/>
    <trip id="255" depart="183.60" from="1155175503443789174" to="1152923703630103880"/>
    <trip id="256" depart="184.32" from="1152923703630104092" to="1157427303257474824"/>
    <trip id="257" depart="185.04" from="1152923703630104216" to="1155175503443789147"/>
    <trip id="258" depart="185.76" from="1152923703630104171" to="1155175503443789638"/>
    <trip id="259" depart="186.48" from="1152923703630104659" to="1152923703630104251"/>
    <trip id="260" depart="187.20" from="1155175503443789140" to="1152923703630103924"/>
    <trip id="261" depart="187.92" from="1152923703630104468" to="1157427303257475076"/>
    <trip id="262" depart="188.64" from="1159679103071159640" to="1155175503443789011"/>
    <trip id="263" depart="189.36" from="1152923703630104099" to="6919783026478023867"/>
    <trip id="264" depart="190.08" from="1152923703630104308" to="1155175503443789539"/>
    <trip id="265" depart="190.80" from="1155175503443789174" to="1157427303257475160"/>
    <trip id="266" depart="191.52" from="1152923703630104441" to="1155175503443789012"/>
    <trip id="267" depart="192.24" from="6919783026478024704" to="6919783026478023865"/>
    <trip id="268" depart="192.96" from="6919783026478024596" to="1157427303257474443"/>
    <trip id="269" depart="193.68" from="1152923703630103937" to="6919783026478024694"/>
    <trip id="270" depart="194.40" from="6919783026478024704" to="1157427303257474401"/>
    <trip id="271" depart="195.12" from="1152923703630104099" to="1155175503443789702"/>
    <trip id="272" depart="195.84" from="1157427303257474235" to="1155175503443789082"/>
    <trip id="273" depart="196.56" from="1152923703630103926" to="1155175503443789554"/>
    <trip id="274" depart="197.28" from="1152923703630104099" to="1152923703630104091"/>
    <trip id="275" depart="198.00" from="1155175503443789345" to="1159679103071160020"/>
    <trip id="276" depart="198.72" from="1152923703630103997" to="1152923703630104478"/>
    <trip id="277" depart="199.44" from="1152923703630104464" to="1155175503443789012"/>
    <trip id="278" depart="200.16" from="1152923703630104797" to="1152923703630104274"/>
    <trip id="279" depart="200.88" from="1152923703630104659" to="1155175503443789090"/>
    <trip id="280" depart="201.60" from="1152923703630103876" to="1155175503443789090"/>
    <trip id="281" depart="202.32" from="1152923703630104100" to="1155175503443789339"/>
    <trip id="282" depart="203.04" from="1152923703630103926" to="1155175503443789012"/>
    <trip id="283" depart="203.76" from="1155175503443789919" to="1152923703630104798"/>
    <trip id="284" depart="204.48" from="1152923703630104441" to="1157427303257474229"/>
    <trip id="285" depart="205.20" from="1155175503443789339" to="1155175503443789300"/>
    <trip id="286" depart="205.92" from="1152923703630103877" to="6919783026478024694"/>
    <trip id="287" depart="206.64" from="6919783026478024596" to="1152923703630103905"/>
    <trip id="288" depart="207.36" from="6919783026478024596" to="1152923703630103755"/>
    <trip id="289" depart="208.08" from="1152923703630104819" to="1152923703630104785"/>
    <trip id="290" depart="208.80" from="1152923703630104095" to="1155175503443789090"/>
    <trip id="291" depart="209.52" from="1152923703630104171" to="1152923703630103699"/>
    <trip id="292" depart="210.24" from="1155175503443789174" to="1152923703630103929"/>
    <trip id="293" depart="210.96" from="1152923703630103926" to="1152923703630103757"/>
    <trip id="294" depart="211.68" from="1152923703630104460" to="1152923703630104293"/>
    <trip id="295" depart="212.40" from="1152923703630103873" to="1155175503443789012"/>
    <trip id="296" depart="213.12" from="1152923703630104292" to="1157427303257474226"/>
    <trip id="297" depart="213.84" from="1155175503443789174" to="1152923703630104618"/>
    <trip id="298" depart="214.56" from="1152923703630104795" to="1155175503443789554"/>
    <trip id="299" depart="215.28" from="1152923703630104308" to="1152923703630104460"/>
    <trip id="300" depart="216.00" from="1152923703630104171" to="1152923703630104460"/>
    <trip id="301" depart="216.72" from="1152923703630103876" to="1159679103071160020"/>
    <trip id="302" depart="217.44" from="1152923703630104812" to="1152923703630104789"/>
    <trip id="303" depart="218.16" from="1152923703630104667" to="6919783026478024404"/>
    <trip id="304" depart="218.88" from="1155175503443789686" to="1152923703630104618"/>
    <trip id="305" depart="219.60" from="1152923703630104659" to="1157427303257474401"/>
    <trip id="306" depart="220.32" from="1155175503443789907" to="1157427303257474949"/>
    <trip id="307" depart="221.04" from="1152923703630104797" to="1157427303257474443"/>
    <trip id="308" depart="221.76" from="1155175503443789174" to="1155175503443789170"/>
    <trip id="309" depart="222.48" from="1152923703630104659" to="1157427303257474443"/>
    <trip id="310" depart="223.20" from="1152923703630104316" to="1159679103071160020"/>
    <trip id="311" depart="223.92" from="6924286626105394897" to="1155175503443789011"/>
    <trip id="312" depart="224.64" from="1152923703630104100" to="1157427303257474949"/>
    <trip id="313" depart="225.36" from="1152923703630104781" to="1155175503443790049"/>
    <trip id="314" depart="226.08" from="1152923703630104441" to="1155175503443789090"/>
    <trip id="315" depart="226.80" from="1152923703630104379" to="1152923703630104335"/>
    <trip id="316" depart="227.52" from="1152923703630103926" to="6919783026478024694"/>
    <trip id="317" depart="228.24" from="1152923703630104659" to="1157427303257474401"/>
    <trip id="318" depart="228.96" from="1152923703630104660" to="1157427303257475072"/>
    <trip id="319" depart="229.68" from="1152923703630103874" to="1152923703630103757"/>
    <trip id="320" depart="230.40" from="1157427303257474403" to="1159679103071160020"/>
    <trip id="321" depart="231.12" from="1152923703630104568" to="1157427303257474401"/>
    <trip id="322" depart="231.84" from="1152923703630104379" to="1155175503443789447"/>
    <trip id="323" depart="232.56" from="1152923703630104659" to="1155175503443789011"/>
    <trip id="324" depart="233.28" from="1152923703630103733" to="1155175503443789082"/>
    <trip id="325" depart="234.00" from="1152923703630104274" to="6919783026478024694"/>
    <trip id="326" depart="234.72" from="1152923703630104820" to="1155175503443790051"/>
    <trip id="327" depart="235.44" from="6919783026478024432" to="1152923703630103924"/>
    <trip id="328" depart="236.16" from="1152923703630104099" to="1155175503443789082"/>
    <trip id="329" depart="236.88" from="1155175503443789417" to="1152923703630103924"/>
    <trip id="330" depart="237.60" from="1152923703630103873" to="1152923703630103730"/>
    <trip id="331" depart="238.32" from="1152923703630104091" to="1155175503443789012"/>
    <trip id="332" depart="239.04" from="1152923703630103926" to="1155175503443789082"/>