<nodes>
    <node id="1159" x="-46.8643484" y="-23.5072235" type="priority"/>
    <node id="1160" x="-46.8617479" y="-23.5093799" type="priority"/>
    <node id="1161" x="-46.8601643" y="-23.5105557" type="priority"/>
    <node id="1162" x="-46.8529013" y="-23.5077516" type="priority"/>
    <node id="1163" x="-46.8547918" y="-23.5113919" type="priority"/>
    <node id="1164" x="-46.8554181" y="-23.5111484" type="priority"/>
    <node id="1165" x="-46.8641638" y="-23.5073011" type="priority"/>
    <node id="1166" x="-46.8618648" y="-23.5087713" type="priority"/>
    <node id="1167" x="-46.861901" y="-23.5086101" type="priority"/>
    <node id="1168" x="-46.8617707" y="-23.5092451" type="priority"/>
    <node id="1169" x="-46.8618661" y="-23.5099648" type="priority"/>
    <node id="1170" x="-46.8578513" y="-23.5140287" type="priority"/>
    <node id="1171" x="-46.8639844" y="-23.5072074" type="priority"/>
    <node id="1172" x="-46.8647968" y="-23.51033" type="priority"/>
    <node id="1173" x="-46.8564219" y="-23.5127243" type="priority"/>
    <node id="1174" x="-46.8558406" y="-23.5124776" type="priority"/>
    <node id="1175" x="-46.8558375" y="-23.512372" type="priority"/>
    <node id="1176" x="-46.863975" y="-23.5102742" type="priority"/>
    <node id="1177" x="-46.8640577" y="-23.5102188" type="priority"/>
    <node id="1178" x="-46.8644119" y="-23.5098899" type="priority"/>
    <node id="1179" x="-46.8578821" y="-23.5140716" type="priority"/>
    <node id="1180" x="-46.8576012" y="-23.5136243" type="priority"/>
    <node id="1181" x="-46.8577388" y="-23.5133957" type="priority"/>
    <node id="1182" x="-46.8583249" y="-23.5134489" type="priority"/>
    <node id="1183" x="-46.8582651" y="-23.5133772" type="priority"/>
    <node id="1184" x="-46.8648342" y="-23.5103377" type="priority"/>
    <node id="1185" x="-46.8644022" y="-23.5108104" type="priority"/>
    <node id="1186" x="-46.8642911" y="-23.5108473" type="priority"/>
    <node id="1187" x="-46.8550587" y="-23.5087368" type="priority"/>
    <node id="1188" x="-46.8540209" y="-23.5091867" type="priority"/>
    <node id="1189" x="-46.854145" y="-23.5091314" type="priority"/>
    <node id="1190" x="-46.8619948" y="-23.5086007" type="priority"/>
    <node id="1191" x="-46.8619321" y="-23.5086006" type="priority"/>
    <node id="1192" x="-46.8623781" y="-23.5106185" type="priority"/>
    <node id="1193" x="-46.8656145" y="-23.5120732" type="priority"/>
    <node id="1194" x="-46.8649382" y="-23.5131115" type="priority"/>
    <node id="1195" x="-46.8658841" y="-23.5113685" type="priority"/>
    <node id="1196" x="-46.865742" y="-23.5117694" type="priority"/>
    <node id="1197" x="-46.8652443" y="-23.5127336" type="priority"/>
    <node id="1198" x="-46.8654669" y="-23.5123917" type="priority"/>
    <node id="1199" x="-46.8659602" y="-23.5111658" type="priority"/>
    <node id="1200" x="-46.858791" y="-23.5110562" type="priority"/>
    <node id="1201" x="-46.8609636" y="-23.5110857" type="priority"/>
    <node id="1202" x="-46.8633527" y="-23.5111439" type="priority"/>
    <node id="1203" x="-46.8605559" y="-23.511232" type="priority"/>
    <node id="1204" x="-46.8604325" y="-23.5112726" type="priority"/>
    <node id="1205" x="-46.8627137" y="-23.5113532" type="priority"/>
    <node id="1206" x="-46.8620679" y="-23.511577" type="priority"/>
    <node id="1207" x="-46.8643093" y="-23.5117104" type="priority"/>
    <node id="1208" x="-46.8616542" y="-23.5117104" type="priority"/>
    <node id="1209" x="-46.8586166" y="-23.5118469" type="priority"/>
    <node id="1210" x="-46.8612546" y="-23.511858" type="priority"/>
    <node id="1211" x="-46.8636419" y="-23.5119225" type="priority"/>
    <node id="1212" x="-46.8643159" y="-23.511814" type="priority"/>
    <node id="1213" x="-46.8629966" y="-23.512126" type="priority"/>
    <node id="1214" x="-46.8606108" y="-23.5120695" type="priority"/>
    <node id="1215" x="-46.860808" y="-23.5120031" type="priority"/>
    <node id="1216" x="-46.8642244" y="-23.5122159" type="priority"/>
    <node id="1217" x="-46.8623536" y="-23.512356" type="priority"/>
    <node id="1218" x="-46.8640662" y="-23.5124685" type="priority"/>
    <node id="1219" x="-46.8615709" y="-23.5126066" type="priority"/>
    <node id="1220" x="-46.8638895" y="-23.5126444" type="priority"/>
    <node id="1221" x="-46.8584329" y="-23.5126426" type="priority"/>
    <node id="1222" x="-46.8637182" y="-23.5127741" type="priority"/>
    <node id="1223" x="-46.8633432" y="-23.5129955" type="priority"/>
    <node id="1224" x="-46.8606578" y="-23.5129193" type="priority"/>
    <node id="1225" x="-46.8630195" y="-23.5131549" type="priority"/>
    <node id="1226" x="-46.8583108" y="-23.5131996" type="priority"/>
    <node id="1227" x="-46.8627243" y="-23.5132874" type="priority"/>
    <node id="1228" x="-46.8623313" y="-23.5134171" type="priority"/>
    <node id="1229" x="-46.8619347" y="-23.5135352" type="priority"/>
    <node id="1230" x="-46.861264" y="-23.5136854" type="priority"/>
    <node id="1231" x="-46.8609729" y="-23.513737" type="priority"/>
    <node id="1232" x="-46.8582505" y="-23.5134345" type="priority"/>
    <node id="1233" x="-46.8584865" y="-23.5151205" type="priority"/>
    <node id="1234" x="-46.8592579" y="-23.5164064" type="priority"/>
    <node id="1235" x="-46.8584141" y="-23.5127311" type="priority"/>
    <node id="1236" x="-46.8583296" y="-23.5131136" type="priority"/>
    <node id="1237" x="-46.8603453" y="-23.5137936" type="priority"/>
    <node id="1238" x="-46.864241" y="-23.5113915" type="priority"/>
    <node id="1239" x="-46.8642793" y="-23.5115336" type="priority"/>
    <node id="1240" x="-46.8624529" y="-23.5126068" type="priority"/>
    <node id="1241" x="-46.8622986" y="-23.5115071" type="priority"/>
    <node id="1242" x="-46.8639465" y="-23.5139402" type="priority"/>
    <node id="1243" x="-46.864136" y="-23.5112071" type="priority"/>
    <node id="1244" x="-46.8609448" y="-23.5128221" type="priority"/>
    <node id="1245" x="-46.8618387" y="-23.5125225" type="priority"/>
    <node id="1246" x="-46.8631657" y="-23.5120732" type="priority"/>
    <node id="1247" x="-46.8594186" y="-23.5128455" type="priority"/>
    <node id="1248" x="-46.8608415" y="-23.5156038" type="priority"/>
    <node id="1249" x="-46.8603708" y="-23.5158497" type="priority"/>
    <node id="1250" x="-46.8611754" y="-23.5154119" type="priority"/>
    <node id="1251" x="-46.85863" y="-23.5117965" type="priority"/>
    <node id="1252" x="-46.8610185" y="-23.5119342" type="priority"/>
    <node id="1253" x="-46.8592456" y="-23.5119699" type="priority"/>
    <node id="1254" x="-46.8601562" y="-23.5121322" type="priority"/>
    <node id="1255" x="-46.8602608" y="-23.5121445" type="priority"/>
    <node id="1256" x="-46.8604647" y="-23.5121088" type="priority"/>
    <node id="1257" x="-46.8601495" y="-23.5129832" type="priority"/>
    <node id="1258" x="-46.8602474" y="-23.512998" type="priority"/>
    <node id="1259" x="-46.8603815" y="-23.5129906" type="priority"/>
    <node id="1260" x="-46.8604901" y="-23.5129721" type="priority"/>
    <node id="1261" x="-46.8582847" y="-23.5132999" type="priority"/>
    <node id="1262" x="-46.8588245" y="-23.5135513" type="priority"/>
    <node id="1263" x="-46.8599617" y="-23.513769" type="priority"/>
    <node id="1264" x="-46.8601763" y="-23.5137936" type="priority"/>
    <node id="1265" x="-46.8606363" y="-23.5137715" type="priority"/>
    <node id="1266" x="-46.8616354" y="-23.5136018" type="priority"/>
    <node id="1267" x="-46.859723" y="-23.5112431" type="priority"/>
    <node id="1268" x="-46.8599202" y="-23.51128" type="priority"/>
    <node id="1269" x="-46.8592899" y="-23.5111545" type="priority"/>
    <node id="1270" x="-46.8601656" y="-23.5113107" type="priority"/>
    <node id="1271" x="-46.8603131" y="-23.5112984" type="priority"/>
    <node id="1272" x="-46.860356" y="-23.5121347" type="priority"/>
    <node id="1273" x="-46.8585315" y="-23.5134911" type="priority"/>
    <node id="1274" x="-46.8591571" y="-23.5136141" type="priority"/>
    <node id="1275" x="-46.8594414" y="-23.5136743" type="priority"/>
    <node id="1276" x="-46.8596157" y="-23.5162334" type="priority"/>
    <node id="1277" x="-46.8598907" y="-23.5160908" type="priority"/>
    <node id="1278" x="-46.8628645" y="-23.5117522" type="priority"/>
    <node id="1279" x="-46.8618209" y="-23.5132451" type="priority"/>
    <node id="1280" x="-46.8593286" y="-23.5163762" type="priority"/>
    <node id="1281" x="-46.8590525" y="-23.511109" type="priority"/>
    <node id="1282" x="-46.8595085" y="-23.5111964" type="priority"/>
    <node id="1283" x="-46.8600462" y="-23.511296" type="priority"/>
    <node id="1284" x="-46.860804" y="-23.5111447" type="priority"/>
    <node id="1285" x="-46.858913" y="-23.5119072" type="priority"/>
    <node id="1286" x="-46.860002" y="-23.5121052" type="priority"/>
    <node id="1287" x="-46.8583833" y="-23.5134603" type="priority"/>
    <node id="1288" x="-46.8596895" y="-23.5137223" type="priority"/>
    <node id="1289" x="-46.8596707" y="-23.5128959" type="priority"/>
    <node id="1290" x="-46.8599282" y="-23.5129463" type="priority"/>
    <node id="1291" x="-46.8586448" y="-23.5126905" type="priority"/>
    <node id="1292" x="-46.8589747" y="-23.5127557" type="priority"/>
    <node id="1293" x="-46.8633393" y="-23.5142902" type="priority"/>
    <node id="1294" x="-46.8643991" y="-23.5136313" type="priority"/>
    <node id="1295" x="-46.8646864" y="-23.5133862" type="priority"/>
    <node id="1296" x="-46.863564" y="-23.5128744" type="priority"/>
    <node id="1297" x="-46.864156" y="-23.5123419" type="priority"/>
    <node id="1298" x="-46.8642708" y="-23.5120701" type="priority"/>
    <node id="1299" x="-46.8641973" y="-23.5112987" type="priority"/>
    <node id="1300" x="-46.859652" y="-23.5120437" type="priority"/>
    <node id="1301" x="-46.8622545" y="-23.5148421" type="priority"/>
    <node id="1302" x="-46.8602725" y="-23.5124173" type="priority"/>
    <node id="1303" x="-46.8602278" y="-23.5123801" type="priority"/>
    <node id="1304" x="-46.8601965" y="-23.5123329" type="priority"/>
    <node id="1305" x="-46.8602025" y="-23.5122002" type="priority"/>
    <node id="1306" x="-46.8602079" y="-23.5121383" type="priority"/>
    <node id="1307" x="-46.8584109" y="-23.5149892" type="priority"/>
    <node id="1308" x="-46.8607074" y="-23.5125405" type="priority"/>
    <node id="1309" x="-46.8606229" y="-23.51257" type="priority"/>
    <node id="1310" x="-46.8605961" y="-23.5125934" type="priority"/>
    <node id="1311" x="-46.860588" y="-23.5126094" type="priority"/>
    <node id="1312" x="-46.8605894" y="-23.5126463" type="priority"/>
    <node id="1313" x="-46.8606189" y="-23.5127385" type="priority"/>
    <node id="1314" x="-46.8606922" y="-23.5129076" type="priority"/>
    <node id="1315" x="-46.8644958" y="-23.5112778" type="priority"/>
    <node id="1316" x="-46.8646503" y="-23.5116949" type="priority"/>
    <node id="1317" x="-46.8646031" y="-23.5120924" type="priority"/>
    <node id="1318" x="-46.8644014" y="-23.5125686" type="priority"/>
    <node id="1319" x="-46.8640066" y="-23.5130998" type="priority"/>
    <node id="1320" x="-46.8633629" y="-23.513517" type="priority"/>
    <node id="1321" x="-46.8626977" y="-23.5139065" type="priority"/>
    <node id="1322" x="-46.8616806" y="-23.5142214" type="priority"/>
    <node id="1323" x="-46.8608781" y="-23.5144614" type="priority"/>
    <node id="1324" x="-46.8601485" y="-23.5145185" type="priority"/>
    <node id="1325" x="-46.8593031" y="-23.5144083" type="priority"/>
    <node id="1326" x="-46.8586551" y="-23.5141249" type="priority"/>
    <node id="1327" x="-46.8644596" y="-23.5110419" type="priority"/>
    <node id="1328" x="-46.8645233" y="-23.5111769" type="priority"/>
    <node id="1329" x="-46.8645662" y="-23.5112504" type="priority"/>
    <node id="1330" x="-46.8647399" y="-23.5116578" type="priority"/>
    <node id="1331" x="-46.8646984" y="-23.512101" type="priority"/>
    <node id="1332" x="-46.864496" y="-23.5126007" type="priority"/>
    <node id="1333" x="-46.8640738" y="-23.513158" type="priority"/>
    <node id="1334" x="-46.8634169" y="-23.5135734" type="priority"/>
    <node id="1335" x="-46.8627317" y="-23.5139706" type="priority"/>
    <node id="1336" x="-46.8609309" y="-23.5145184" type="priority"/>
    <node id="1337" x="-46.8601608" y="-23.5146119" type="priority"/>
    <node id="1338" x="-46.8592491" y="-23.5144898" type="priority"/>
    <node id="1339" x="-46.8595235" y="-23.5162796" type="priority"/>
    <node id="1340" x="-46.8517901" y="-23.5110725" type="priority"/>
    <node id="1341" x="-46.855516" y="-23.5111386" type="priority"/>
    <node id="1342" x="-46.8533394" y="-23.5111939" type="priority"/>
    <node id="1343" x="-46.8561342" y="-23.5112492" type="priority"/>
    <node id="1344" x="-46.8549822" y="-23.5113193" type="priority"/>
    <node id="1345" x="-46.8567136" y="-23.5113931" type="priority"/>
    <node id="1346" x="-46.8546577" y="-23.5114349" type="priority"/>
    <node id="1347" x="-46.8573251" y="-23.5115186" type="priority"/>
    <node id="1348" x="-46.8554235" y="-23.5115887" type="priority"/>
    <node id="1349" x="-46.8540542" y="-23.5121925" type="priority"/>
    <node id="1350" x="-46.8549614" y="-23.5121722" type="priority"/>
    <node id="1351" x="-46.8552471" y="-23.5122361" type="priority"/>
    <node id="1352" x="-46.855813" y="-23.5124649" type="priority"/>
    <node id="1353" x="-46.8540099" y="-23.5124692" type="priority"/>
    <node id="1354" x="-46.8563803" y="-23.5127077" type="priority"/>
    <node id="1355" x="-46.855807" y="-23.5128774" type="priority"/>
    <node id="1356" x="-46.8569382" y="-23.5129506" type="priority"/>
    <node id="1357" x="-46.8572272" y="-23.5131074" type="priority"/>
    <node id="1358" x="-46.8573479" y="-23.5135234" type="priority"/>
    <node id="1359" x="-46.8577141" y="-23.513378" type="priority"/>
    <node id="1360" x="-46.8577577" y="-23.5134093" type="priority"/>
    <node id="1361" x="-46.8578929" y="-23.5135393" type="priority"/>
    <node id="1362" x="-46.8578174" y="-23.513546" type="priority"/>
    <node id="1363" x="-46.8579834" y="-23.5135611" type="priority"/>
    <node id="1364" x="-46.8577447" y="-23.5135749" type="priority"/>
    <node id="1365" x="-46.8575585" y="-23.5136153" type="priority"/>
    <node id="1366" x="-46.8577155" y="-23.5135964" type="priority"/>
    <node id="1367" x="-46.8580409" y="-23.5135967" type="priority"/>
    <node id="1368" x="-46.8576734" y="-23.5136396" type="priority"/>
    <node id="1369" x="-46.8581199" y="-23.5137677" type="priority"/>
    <node id="1370" x="-46.857637" y="-23.5137817" type="priority"/>
    <node id="1371" x="-46.8581043" y="-23.5138397" type="priority"/>
    <node id="1372" x="-46.8576892" y="-23.5138998" type="priority"/>
    <node id="1373" x="-46.8580639" y="-23.5139031" type="priority"/>
    <node id="1374" x="-46.8577112" y="-23.5139195" type="priority"/>
    <node id="1375" x="-46.858013" y="-23.5139452" type="priority"/>
    <node id="1376" x="-46.8577872" y="-23.5139621" type="priority"/>
    <node id="1377" x="-46.8555027" y="-23.5146087" type="priority"/>
    <node id="1378" x="-46.8558253" y="-23.515109" type="priority"/>
    <node id="1379" x="-46.8553968" y="-23.514663" type="priority"/>
    <node id="1380" x="-46.8574391" y="-23.5124077" type="priority"/>
    <node id="1381" x="-46.8552639" y="-23.5126622" type="priority"/>
    <node id="1382" x="-46.8549728" y="-23.5125848" type="priority"/>
    <node id="1383" x="-46.8551257" y="-23.5126229" type="priority"/>
    <node id="1384" x="-46.8548039" y="-23.512554" type="priority"/>
    <node id="1385" x="-46.8554811" y="-23.5127409" type="priority"/>
    <node id="1386" x="-46.8545035" y="-23.5121433" type="priority"/>
    <node id="1387" x="-46.8543707" y="-23.5121494" type="priority"/>
    <node id="1388" x="-46.8548334" y="-23.5121568" type="priority"/>
    <node id="1389" x="-46.8550902" y="-23.5121937" type="priority"/>
    <node id="1390" x="-46.8542835" y="-23.5125048" type="priority"/>
    <node id="1391" x="-46.8537229" y="-23.511719" type="priority"/>
    <node id="1392" x="-46.8533917" y="-23.5114448" type="priority"/>
    <node id="1393" x="-46.8541186" y="-23.5124593" type="priority"/>
    <node id="1394" x="-46.8543305" y="-23.5129439" type="priority"/>
    <node id="1395" x="-46.8534574" y="-23.5117264" type="priority"/>
    <node id="1396" x="-46.8559294" y="-23.51489" type="priority"/>
    <node id="1397" x="-46.8557715" y="-23.5146355" type="priority"/>
    <node id="1398" x="-46.8557164" y="-23.5151699" type="priority"/>
    <node id="1399" x="-46.85311" y="-23.5115173" type="priority"/>
    <node id="1400" x="-46.854073" y="-23.5128086" type="priority"/>
    <node id="1401" x="-46.854654" y="-23.5132907" type="priority"/>
    <node id="1402" x="-46.8545987" y="-23.513073" type="priority"/>
    <node id="1403" x="-46.8572836" y="-23.5127077" type="priority"/>
    <node id="1404" x="-46.8543814" y="-23.5154501" type="priority"/>
    <node id="1405" x="-46.8542339" y="-23.5141982" type="priority"/>
    <node id="1406" x="-46.8544444" y="-23.5140992" type="priority"/>
    <node id="1407" x="-46.8545672" y="-23.5140586" type="priority"/>
    <node id="1408" x="-46.8549294" y="-23.5139095" type="priority"/>
    <node id="1409" x="-46.8546282" y="-23.5140506" type="priority"/>
    <node id="1410" x="-46.8547462" y="-23.514023" type="priority"/>
    <node id="1411" x="-46.8548065" y="-23.5139977" type="priority"/>
    <node id="1412" x="-46.8548481" y="-23.5139768" type="priority"/>
    <node id="1413" x="-46.8548991" y="-23.5139387" type="priority"/>
    <node id="1414" x="-46.8552344" y="-23.5112173" type="priority"/>
    <node id="1415" x="-46.8581318" y="-23.5135341" type="priority"/>
    <node id="1416" x="-46.8582069" y="-23.513488" type="priority"/>
    <node id="1417" x="-46.8580446" y="-23.5139529" type="priority"/>
    <node id="1418" x="-46.8580124" y="-23.5140346" type="priority"/>
    <node id="1419" x="-46.8579842" y="-23.5142138" type="priority"/>
    <node id="1420" x="-46.8573318" y="-23.5139842" type="priority"/>
    <node id="1421" x="-46.8576537" y="-23.5139621" type="priority"/>
    <node id="1422" x="-46.855902" y="-23.514771" type="priority"/>
    <node id="1423" x="-46.8559224" y="-23.5148292" type="priority"/>
    <node id="1424" x="-46.8559227" y="-23.514951" type="priority"/>
    <node id="1425" x="-46.8559024" y="-23.5150095" type="priority"/>
    <node id="1426" x="-46.855649" y="-23.5151852" type="priority"/>
    <node id="1427" x="-46.8554475" y="-23.5151504" type="priority"/>
    <node id="1428" x="-46.8553908" y="-23.5151136" type="priority"/>
    <node id="1429" x="-46.8553091" y="-23.5150116" type="priority"/>
    <node id="1430" x="-46.8552878" y="-23.514951" type="priority"/>
    <node id="1431" x="-46.8553348" y="-23.5147268" type="priority"/>
    <node id="1432" x="-46.8553633" y="-23.5146929" type="priority"/>
    <node id="1433" x="-46.8555796" y="-23.515187" type="priority"/>
    <node id="1434" x="-46.8555114" y="-23.5151752" type="priority"/>
    <node id="1435" x="-46.8557083" y="-23.5146088" type="priority"/>
    <node id="1436" x="-46.855869" y="-23.5147179" type="priority"/>
    <node id="1437" x="-46.8563944" y="-23.5145597" type="priority"/>
    <node id="1438" x="-46.856039" y="-23.5146262" type="priority"/>
    <node id="1439" x="-46.8539026" y="-23.5126413" type="priority"/>
    <node id="1440" x="-46.8536814" y="-23.5123314" type="priority"/>
    <node id="1441" x="-46.8542406" y="-23.5129082" type="priority"/>
    <node id="1442" x="-46.8544672" y="-23.5114927" type="priority"/>
    <node id="1443" x="-46.8576383" y="-23.51373" type="priority"/>
    <node id="1444" x="-46.8579393" y="-23.5135462" type="priority"/>
    <node id="1445" x="-46.858085" y="-23.5136458" type="priority"/>
    <node id="1446" x="-46.8581122" y="-23.5137045" type="priority"/>
    <node id="1447" x="-46.8579511" y="-23.5139725" type="priority"/>
    <node id="1448" x="-46.8578835" y="-23.5139829" type="priority"/>
    <node id="1449" x="-46.8576537" y="-23.5138443" type="priority"/>
    <node id="1450" x="-46.8582386" y="-23.5134614" type="priority"/>
    <node id="1451" x="-46.8542379" y="-23.5121617" type="priority"/>
    <node id="1452" x="-46.8555737" y="-23.5123591" type="priority"/>
    <node id="1453" x="-46.8567686" y="-23.5128713" type="priority"/>
    <node id="1454" x="-46.8574029" y="-23.5131947" type="priority"/>
    <node id="1455" x="-46.8575464" y="-23.5132716" type="priority"/>
    <node id="1456" x="-46.8553119" y="-23.5147642" type="priority"/>
    <node id="1457" x="-46.8553439" y="-23.5150666" type="priority"/>
    <node id="1458" x="-46.8558249" y="-23.5146721" type="priority"/>
    <node id="1459" x="-46.8559964" y="-23.5147827" type="priority"/>
    <node id="1460" x="-46.8562522" y="-23.5146322" type="priority"/>
    <node id="1461" x="-46.8573144" y="-23.5141035" type="priority"/>
    <node id="1462" x="-46.8575303" y="-23.5140064" type="priority"/>
    <node id="1463" x="-46.8541333" y="-23.5142486" type="priority"/>
    <node id="1464" x="-46.8540837" y="-23.5142714" type="priority"/>
    <node id="1465" x="-46.8540354" y="-23.5142978" type="priority"/>
    <node id="1466" x="-46.8539784" y="-23.5143458" type="priority"/>
    <node id="1467" x="-46.8540059" y="-23.5144675" type="priority"/>
    <node id="1468" x="-46.8545035" y="-23.5140758" type="priority"/>
    <node id="1469" x="-46.8540743" y="-23.5145868" type="priority"/>
    <node id="1470" x="-46.854195" y="-23.5148475" type="priority"/>
    <node id="1471" x="-46.8543412" y="-23.5152508" type="priority"/>
    <node id="1472" x="-46.8542862" y="-23.5150627" type="priority"/>
    <node id="1473" x="-46.8539885" y="-23.5127397" type="priority"/>
    <node id="1474" x="-46.8541561" y="-23.5128627" type="priority"/>
    <node id="1475" x="-46.8528284" y="-23.5110943" type="priority"/>
    <node id="1476" x="-46.8528928" y="-23.5112013" type="priority"/>
    <node id="1477" x="-46.8543747" y="-23.5126499" type="priority"/>
    <node id="1478" x="-46.8541695" y="-23.5123327" type="priority"/>
    <node id="1479" x="-46.8544793" y="-23.5128319" type="priority"/>
    <node id="1480" x="-46.8545558" y="-23.5129795" type="priority"/>
    <node id="1481" x="-46.8546443" y="-23.5125331" type="priority"/>
    <node id="1482" x="-46.8564494" y="-23.5131382" type="priority"/>
    <node id="1483" x="-46.8560806" y="-23.5129906" type="priority"/>
    <node id="1484" x="-46.8571054" y="-23.5134183" type="priority"/>
    <node id="1485" x="-46.8570744" y="-23.512479" type="priority"/>
    <node id="1486" x="-46.8574297" y="-23.5110832" type="priority"/>
    <node id="1487" x="-46.8541239" y="-23.5115997" type="priority"/>
    <node id="1488" x="-46.8553229" y="-23.5111779" type="priority"/>
    <node id="1489" x="-46.8556997" y="-23.511165" type="priority"/>
    <node id="1490" x="-46.8558338" y="-23.5111914" type="priority"/>
    <node id="1491" x="-46.8559867" y="-23.511221" type="priority"/>
    <node id="1492" x="-46.8576501" y="-23.5136874" type="priority"/>
    <node id="1493" x="-46.8568437" y="-23.5133042" type="priority"/>
    <node id="1494" x="-46.8535258" y="-23.5111496" type="priority"/>
    <node id="1495" x="-46.8537471" y="-23.5110931" type="priority"/>
    <node id="1496" x="-46.8539576" y="-23.5110365" type="priority"/>
    <node id="1497" x="-46.8518668" y="-23.5110377" type="priority"/>
    <node id="1498" x="-46.8577154" y="-23.515249" type="priority"/>
    <node id="1499" x="-46.8559961" y="-23.5148303" type="priority"/>
    <node id="1500" x="-46.8559907" y="-23.5148795" type="priority"/>
    <node id="1501" x="-46.8559854" y="-23.5149139" type="priority"/>
    <node id="1502" x="-46.8559706" y="-23.5149557" type="priority"/>
    <node id="1503" x="-46.8559398" y="-23.515027" type="priority"/>
    <node id="1504" x="-46.8559264" y="-23.5150701" type="priority"/>
    <node id="1505" x="-46.8559331" y="-23.5151156" type="priority"/>
    <node id="1506" x="-46.8559586" y="-23.5151611" type="priority"/>
    <node id="1507" x="-46.8560202" y="-23.5152521" type="priority"/>
    <node id="1508" x="-46.856145" y="-23.5154452" type="priority"/>
    <node id="1509" x="-46.8565324" y="-23.5160862" type="priority"/>
    <node id="1510" x="-46.8568209" y="-23.5148168" type="priority"/>
    <node id="1511" x="-46.8571508" y="-23.5154292" type="priority"/>
    <node id="1512" x="-46.8573355" y="-23.5156893" type="priority"/>
    <node id="1513" x="-46.8568637" y="-23.5149114" type="priority"/>
    <node id="1514" x="-46.8569242" y="-23.5150369" type="priority"/>
    <node id="1515" x="-46.857645" y="-23.5133325" type="priority"/>
    <node id="1516" x="-46.8581687" y="-23.5135163" type="priority"/>
    <node id="1517" x="-46.8544136" y="-23.5134382" type="priority"/>
    <node id="1518" x="-46.8544552" y="-23.513496" type="priority"/>
    <node id="1519" x="-46.8545102" y="-23.5135612" type="priority"/>
    <node id="1520" x="-46.8545611" y="-23.5136116" type="priority"/>
    <node id="1521" x="-46.8546624" y="-23.5136903" type="priority"/>
    <node id="1522" x="-46.8547167" y="-23.5137235" type="priority"/>
    <node id="1523" x="-46.854771" y="-23.5137456" type="priority"/>
    <node id="1524" x="-46.8548403" y="-23.5137658" type="priority"/>
    <node id="1525" x="-46.8579018" y="-23.5151476" type="priority"/>
    <node id="1526" x="-46.8579132" y="-23.51511" type="priority"/>
    <node id="1527" x="-46.8579078" y="-23.5150621" type="priority"/>
    <node id="1528" x="-46.8572272" y="-23.5155392" type="priority"/>
    <node id="1529" x="-46.8543305" y="-23.5141515" type="priority"/>
    <node id="1530" x="-46.8541347" y="-23.5147085" type="priority"/>
    <node id="1531" x="-46.8529679" y="-23.5113132" type="priority"/>
    <node id="1532" x="-46.8554382" y="-23.5123068" type="priority"/>
    <node id="1533" x="-46.8570925" y="-23.5130355" type="priority"/>
    <node id="1534" x="-46.8568034" y="-23.5147171" type="priority"/>
    <node id="1535" x="-46.8568034" y="-23.5147614" type="priority"/>
    <node id="1536" x="-46.8568195" y="-23.5146729" type="priority"/>
    <node id="1537" x="-46.8568517" y="-23.5146188" type="priority"/>
    <node id="1538" x="-46.8569" y="-23.5145733" type="priority"/>
    <node id="1539" x="-46.8570381" y="-23.5145007" type="priority"/>
    <node id="1540" x="-46.8572085" y="-23.5144269" type="priority"/>
    <node id="1541" x="-46.8574083" y="-23.5143531" type="priority"/>
    <node id="1542" x="-46.8575853" y="-23.5143003" type="priority"/>
    <node id="1543" x="-46.8576886" y="-23.514283" type="priority"/>
    <node id="1544" x="-46.8577918" y="-23.514283" type="priority"/>
    <node id="1545" x="-46.8578509" y="-23.514299" type="priority"/>
    <node id="1546" x="-46.8570083" y="-23.5151866" type="priority"/>
    <node id="1547" x="-46.8579085" y="-23.5147368" type="priority"/>
    <node id="1548" x="-46.857989" y="-23.5146889" type="priority"/>
    <node id="1549" x="-46.8580118" y="-23.5146544" type="priority"/>
    <node id="1550" x="-46.8580198" y="-23.5146077" type="priority"/>
    <node id="1551" x="-46.8580158" y="-23.5145511" type="priority"/>
    <node id="1552" x="-46.8580024" y="-23.5145069" type="priority"/>
    <node id="1553" x="-46.8579072" y="-23.5143507" type="priority"/>
    <node id="1554" x="-46.8550144" y="-23.5115087" type="priority"/>
    <node id="1555" x="-46.8551713" y="-23.511537" type="priority"/>
    <node id="1556" x="-46.8575384" y="-23.5128073" type="priority"/>
    <node id="1557" x="-46.8580239" y="-23.5130029" type="priority"/>
    <node id="1558" x="-46.8578562" y="-23.5125454" type="priority"/>
    <node id="1559" x="-46.8580614" y="-23.5126167" type="priority"/>
    <node id="1560" x="-46.8543801" y="-23.5133786" type="priority"/>
    <node id="1561" x="-46.8543532" y="-23.5133294" type="priority"/>
    <node id="1562" x="-46.8546825" y="-23.5141386" type="priority"/>
    <node id="1563" x="-46.8548092" y="-23.5143605" type="priority"/>
    <node id="1564" x="-46.8548843" y="-23.514497" type="priority"/>
    <node id="1565" x="-46.8542406" y="-23.5149569" type="priority"/>
    <node id="1566" x="-46.8549272" y="-23.5145751" type="priority"/>
    <node id="1567" x="-46.8543063" y="-23.5151217" type="priority"/>
    <node id="1568" x="-46.8550318" y="-23.5147503" type="priority"/>
    <node id="1569" x="-46.855107" y="-23.5148727" type="priority"/>
    <node id="1570" x="-46.854372" y="-23.515391" type="priority"/>
    <node id="1571" x="-46.8544022" y="-23.5155558" type="priority"/>
    <node id="1572" x="-46.8547435" y="-23.5142468" type="priority"/>
    <node id="1573" x="-46.8549661" y="-23.5146409" type="priority"/>
    <node id="1574" x="-46.8551854" y="-23.5150086" type="priority"/>
    <node id="1575" x="-46.8552726" y="-23.5151405" type="priority"/>
    <node id="1576" x="-46.8579935" y="-23.5141158" type="priority"/>
    <node id="1577" x="-46.8569671" y="-23.5142695" type="priority"/>
    <node id="1578" x="-46.856098" y="-23.5147085" type="priority"/>
    <node id="1579" x="-46.8551371" y="-23.5149237" type="priority"/>
    <node id="1580" x="-46.8548421" y="-23.5144189" type="priority"/>
    <node id="1581" x="-46.8565902" y="-23.5127914" type="priority"/>
    <node id="1582" x="-46.854431" y="-23.5125147" type="priority"/>
    <node id="1583" x="-46.8552811" y="-23.5148876" type="priority"/>
    <node id="1584" x="-46.8556403" y="-23.5145952" type="priority"/>
    <node id="1585" x="-46.8558695" y="-23.5150629" type="priority"/>
    <node id="1586" x="-46.8563958" y="-23.511312" type="priority"/>
    <node id="1587" x="-46.858048" y="-23.5116747" type="priority"/>