<?xml version="1.0" encoding="UTF-8"?>

<!-- generated on 2025-10-06 13:17:59 by Eclipse SUMO duarouter Version 1.24.0
<duarouterConfiguration xmlns:xsi="http://www.w3.org/2001/XMLSchema-instance" xsi:noNamespaceSchemaLocation="http://sumo.dlr.de/xsd/duarouterConfiguration.xsd">

    <input>
        <net-file value="scenarios/from_api/api.net.xml"/>
        <route-files value="scenarios/from_api/api.trips.xml"/>
    </input>

    <output>
        <output-file value="scenarios/from_api/api.rou.xml"/>
        <alternatives-output value="NUL"/>
    </output>

    <time>
        <begin value="0"/>
        <end value="5000.0"/>
    </time>

    <report>
        <no-warnings value="true"/>
        <ignore-errors value="true"/>
        <no-step-log value="true"/>
    </report>

</duarouterConfiguration>
-->

<routes xmlns:xsi="http://www.w3.org/2001/XMLSchema-instance" xsi:noNamespaceSchemaLocation="http://sumo.dlr.de/xsd/routes_file.xsd">
    <vehicle id="0" depart="0.00">
        <route edges="1152923703630104274 1152923703630104551 1152923703630104282"/>
    </vehicle>
    <vehicle id="1" depart="0.72">
        <route edges="1155175503443789174 1152923703630103907 1152923703630103936 1152923703630104052 1155175503443789170 1155175503443789926 1152923703630104667 1152923703630104791 6919783026478024047 1152923703630103919 1157427303257474370 1152923703630103869 1157427303257474367 1157427303257474369 1152923703630103875 1152923703630104658 1152923703630104370 1152923703630104342 1152923703630104270 1152923703630104304 1155175503443789554"/>
    </vehicle>
    <vehicle id="2" depart="1.44">
        <route edges="1152923703630104629 1152923703630104370 1152923703630104342 1152923703630104270 1152923703630104304 1152923703630104306 1152923703630104323 1152923703630104285 1152923703630104292 1157427303257474229 1152923703630103741 1152923703630103751"/>
    </vehicle>
    <vehicle id="3" depart="2.16">
        <route edges="1152923703630104171 1152923703630104180 1152923703630104182 6919783026478024404 1157427303257474772 1152923703630104308 1152923703630104282 1152923703630104291 1155175503443789541 1152923703630104199 1152923703630104328 1159679103071160198 1152923703630104299 1152923703630103735 1152923703630103748 1152923703630103751 1152923703630103755 1152923703630103757 1152923703630103760 1155175503443789012"/>
    </vehicle>
    <vehicle id="4" depart="2.88">
        <route edges="1152923703630103926 1152923703630103984 1157427303257474403 1152923703630103905 1157427303257474421 1152923703630103924"/>
    </vehicle>
    <vehicle id="5" depart="3.60">
        <route edges="1152923703630103919 1157427303257474370 1152923703630103869 1157427303257474367 1157427303257474369 1152923703630103875 1152923703630104658 1152923703630104370 1152923703630104342 1157427303257474766 1152923703630104322 1152923703630104405 1157427303257474949 6924286626105394897 1152923703630104274 1152923703630104551 1152923703630104282 1152923703630104291 1152923703630104293"/>
    </vehicle>
    <vehicle id="6" depart="4.32">
        <route edges="1152923703630104052 1155175503443789170 1152923703630104678"/>
    </vehicle>
    <vehicle id="7" depart="5.04">
        <route edges="1152923703630104182 6919783026478024404 1157427303257474772 1152923703630104308 1152923703630104282 1152923703630104291 1155175503443789541 1152923703630104199 1152923703630104328 1159679103071160198 1152923703630104299 1152923703630103735 1152923703630103748 1152923703630103751 1152923703630103755"/>
    </vehicle>
    <vehicle id="8" depart="5.76">
        <route edges="1152923703630104171 1152923703630104180 1152923703630104182 6919783026478024404 1159679103071160020"/>
    </vehicle>
    <vehicle id="9" depart="6.48">
        <route edges="1152923703630104453 1152923703630103699 1152923703630104494 1152923703630104481 1155175503443789502 1152923703630103693 1152923703630104274"/>
    </vehicle>
    <vehicle id="10" depart="7.20">
        <route edges="1152923703630103926 1152923703630103984 1152923703630103907 1152923703630103936 1152923703630104052 1155175503443789170 1155175503443789926 1152923703630104667 1152923703630104791 6919783026478024047 1152923703630103919 1157427303257474370 1152923703630103869"/>
    </vehicle>
    <vehicle id="11" depart="7.92">
        <route edges="1152923703630103947 1152923703630103904 1152923703630104147 1152923703630103898 1152923703630103896 1152923703630103892 1152923703630103889 1152923703630103891 1152923703630103897 1155175503443789147 1155175503443789702 1152923703630104464 1152923703630104468 1152923703630104460 1152923703630104478 1152923703630104580 1152923703630104551 1152923703630104282 1152923703630104291 1155175503443789541 1155175503443789447"/>
    </vehicle>
    <vehicle id="12" depart="8.64">
        <route edges="6919783026478024432 1152923703630104304 1152923703630104306 1152923703630104323 1152923703630104285 1155175503443789540 6919783026478024415 1157427303257474783 1155175503443789534 1152923703630104460 1152923703630104478 1152923703630104580 1152923703630104551 1152923703630104282 1152923703630104291 1152923703630104293 1157427303257474824 1152923703630103903 1152923703630103904 1152923703630104147 1152923703630103898 1152923703630103896 1152923703630103892 1152923703630103889 1152923703630103891 1152923703630103897 1152923703630103899 1155175503443789417 1157427303257474443"/>
    </vehicle>
    <vehicle id="13" depart="9.36">
        <route edges="1152923703630103693 1152923703630104274 1152923703630104551 1152923703630104282 1152923703630104291 1155175503443789541 1152923703630104199 1152923703630104328 1159679103071160198 1152923703630104299 6919783026478023867 1157427303257474235 1157427303257474237 1155175503443788993 1152923703630103747 1152923703630103842 6919783026478023865 1157427303257474233 1152923703630103779 1152923703630103728 1152923703630104618"/>
    </vehicle>
    <vehicle id="14" depart="10.08">
        <route edges="1159679103071159640 6919783026478024046 1152923703630103918 1152923703630103896 1152923703630103892 1152923703630103889 1152923703630103891 1152923703630103897 1155175503443789147 1155175503443789702 1152923703630104464 1152923703630104468 1152923703630104460 1155175503443789726 1157427303257474949 6924286626105394897 1152923703630104273 6919783026478024404 1159679103071160020"/>
    </vehicle>
    <vehicle id="15" depart="10.80">
        <route edges="1152923703630103926 1152923703630103984 1157427303257474403 1152923703630103905 1152923703630103925 1152923703630103898 1152923703630103896 1152923703630103892 1152923703630103889 1155175503443789139 1152923703630103978 1152923703630103760 1152923703630103764 1155175503443789011"/>
    </vehicle>
    <vehicle id="16" depart="11.52">
        <route edges="1152923703630104629 1157427303257474866 1152923703630104806 1155175503443789907 1152923703630104652 1152923703630104664 1152923703630104666 1152923703630103869 1157427303257474367 1157427303257474369 1152923703630103875 1152923703630104658 1152923703630104251"/>
    </vehicle>
    <vehicle id="17" depart="12.24">
        <route edges="1152923703630104099 1152923703630103999 1152923703630104095 1152923703630104093 1152923703630103998 1152923703630104058 1152923703630103997 1152923703630103995 1157427303257474433 1152923703630103936 1152923703630104052 1155175503443789170 1155175503443789926 1152923703630104667 1152923703630104791 6919783026478024047 1157427303257474415 1155175503443789125 6919783026478024046 1152923703630103918 1152923703630103896 1152923703630103892 1152923703630103889 1152923703630103891 1152923703630103897 1155175503443789147 1155175503443789702 1157427303257474201 1152923703630104576"/>
    </vehicle>
    <vehicle id="18" depart="12.96">
        <route edges="1152923703630104629 1157427303257474866 1152923703630104806 1155175503443789907 1152923703630104652 1152923703630104664 1152923703630104666 1152923703630103869 1152923703630103871 1152923703630103880 1157427303257474378 1152923703630103884 6919783026478024017 1152923703630103889 1155175503443789139 1152923703630103978 1152923703630103760 1152923703630103764 1152923703630103763 6919783026478023865 1152923703630103737 1155175503443789082"/>
    </vehicle>
    <vehicle id="19" depart="13.68">
        <route edges="1152923703630103998 1152923703630104058 1152923703630103997 1152923703630103995 1157427303257474433 1152923703630103936 1152923703630104052 1155175503443789170 1155175503443789926 1152923703630104667 1152923703630104791 6919783026478024047 1152923703630103919 1157427303257474370 1152923703630103869 1157427303257474367 1157427303257474369 1152923703630103875 1152923703630104658 1152923703630104370 1152923703630104342 1152923703630104270 1152923703630104304 1152923703630104306 1152923703630104323 1152923703630104285"/>
    </vehicle>
    <vehicle id="20" depart="14.40">
        <route edges="1152923703630104199 1152923703630104328 1155175503443789702 1152923703630104464 1152923703630104468 1152923703630104460 1155175503443789726 1157427303257474949 6924286626105394897 1152923703630104273 6919783026478024404 1152923703630104276"/>
    </vehicle>
    <vehicle id="21" depart="15.12">
        <route edges="1152923703630103884 6919783026478024017 1152923703630103889 1152923703630103891 1152923703630103897 1155175503443789147 1155175503443789702 1152923703630104464 1152923703630104468 1152923703630104460 1152923703630104478 1152923703630104580 1152923703630104551 1152923703630104282 1152923703630104291 1155175503443789541 1155175503443789447"/>
    </vehicle>
    <vehicle id="22" depart="15.84">
        <route edges="1155175503443789174 1152923703630103907 1152923703630103936 1152923703630104052 1155175503443789170 1155175503443789926 1152923703630104667 1152923703630104791 6919783026478024047 1152923703630103919 1157427303257474370 1152923703630103869 1157427303257474367 1157427303257474369 1152923703630103875 1152923703630104658 1152923703630104370 1152923703630104342 1152923703630104270 1152923703630104304 1155175503443789554"/>
    </vehicle>
    <vehicle id="23" depart="16.56">
        <route edges="1152923703630104216 1152923703630104481 1155175503443789502 1152923703630103693 1152923703630104274 1152923703630104597 1152923703630104464 1152923703630104468 1152923703630104460 1152923703630104478 1157427303257475076"/>
    </vehicle>
    <vehicle id="24" depart="17.28">
        <route edges="1152923703630104659 1152923703630104658 1152923703630104251"/>
    </vehicle>
    <vehicle id="25" depart="18.00">
        <route edges="1152923703630104245 1152923703630104790 1155175503443789919 1152923703630104692 1152923703630104719 1152923703630103716 1155175503443790030 1155175503443790049"/>
    </vehicle>
    <vehicle id="26" depart="18.72">
        <route edges="1152923703630104648 1152923703630104804 1152923703630104695 1152923703630104785 1152923703630104753 1152923703630104641 1152923703630104789"/>
    </vehicle>
    <vehicle id="27" depart="19.44">
        <route edges="1152923703630104791 6919783026478024047 1152923703630103919 1157427303257474370 1152923703630103869 1157427303257474367 1157427303257474369 1152923703630103875 1152923703630104658 1152923703630104370 1152923703630104342 1152923703630104270 1152923703630104304 1155175503443789554"/>
    </vehicle>
    <vehicle id="28" depart="20.16">
        <route edges="1152923703630104216 1152923703630104481 1155175503443789502 1152923703630103693 1152923703630104274 1152923703630104551 1152923703630104282 1152923703630104291 1152923703630104293 1157427303257474824 1152923703630103903 1152923703630103904 1152923703630104147 1152923703630103898 1152923703630103896 1152923703630103892 1152923703630103889 1152923703630103891 1152923703630103897 1152923703630103899 1155175503443789417 1152923703630103947"/>
    </vehicle>
    <vehicle id="29" depart="20.88">
        <route edges="1152923703630104791 6919783026478024047 1152923703630103919 1157427303257474370 1152923703630103869 1157427303257474367 1157427303257474369 1152923703630103875 1152923703630104658 1152923703630104370 1152923703630104342 1157427303257474766 1152923703630104322 1152923703630104405 1157427303257474949 6924286626105394897 1152923703630104274 1152923703630104551 1152923703630104282 1152923703630104291 1155175503443789541 1155175503443789447"/>
    </vehicle>
    <vehicle id="30" depart="21.60">
        <route edges="1152923703630104797 1152923703630104658 1152923703630104370 1152923703630104342 1157427303257474766 1152923703630104322 1152923703630104405 1157427303257474949 6919783026478024694"/>
    </vehicle>
    <vehicle id="31" depart="22.32">
        <route edges="1157427303257474201 1152923703630104576 1152923703630104580 1152923703630104551 1152923703630104282 1152923703630104291 1155175503443789541 1152923703630104199 1152923703630104328 1152923703630104454"/>
    </vehicle>
    <vehicle id="32" depart="23.04">
        <route edges="1152923703630103937 1155175503443789338 1152923703630103995 1157427303257474433 1152923703630103936 1152923703630104052 1155175503443789170 1155175503443789926 1152923703630104667 1152923703630104791 6919783026478024047 1157427303257474415 1155175503443789125 6919783026478024046 1152923703630103918 1152923703630103896 1152923703630103892 1152923703630103889 1155175503443789139"/>
    </vehicle>
    <vehicle id="33" depart="23.76">
        <route edges="1152923703630104660 1152923703630104666 1152923703630103869 1157427303257474367 1157427303257474369 1152923703630103875 1152923703630104658 1152923703630104370 1152923703630104342 1152923703630104270 1152923703630104304 1152923703630104306 1152923703630104323 1155175503443789533 1152923703630104311 6919783026478024424 1157427303257474792"/>
    </vehicle>
    <vehicle id="34" depart="24.48">
        <route edges="1152923703630104629 1152923703630104370 1152923703630104342 1152923703630104270 1152923703630104304 1152923703630104306 1152923703630104323 1152923703630104285 1155175503443789540 6919783026478024415 1152923703630104287 1152923703630103730"/>
    </vehicle>
    <vehicle id="35" depart="25.20">
        <route edges="1152923703630103907 1152923703630103936 1152923703630104052 1155175503443789170 1155175503443789926 1152923703630104667 1152923703630104791 6919783026478024047 1157427303257474415 1155175503443789125 6919783026478024046 1152923703630103918 1152923703630103896 1152923703630103892 1152923703630103889 1152923703630103891 1152923703630103897 1152923703630103899 1155175503443789417 1157427303257474443"/>
    </vehicle>
    <vehicle id="36" depart="25.92">
        <route edges="6919783026478024432 1152923703630104304 1152923703630104306 1152923703630104323 1152923703630104285 1152923703630104292 1157427303257474229 1157427303257474237 1155175503443788993 1152923703630103747 1155175503443789090"/>
    </vehicle>
    <vehicle id="37" depart="26.64">
        <route edges="1152923703630104216 1152923703630104481 1155175503443789502 1152923703630103693 1152923703630104274 1152923703630104551 1152923703630104282 1152923703630104291 1152923703630104293 1157427303257474824 1152923703630103903 1152923703630103904 1155175503443789395 1152923703630103987 1152923703630103924"/>
    </vehicle>
    <vehicle id="38" depart="27.36">
        <route edges="1152923703630104468 1152923703630104460 1152923703630104478 1152923703630104580 1152923703630104551 1152923703630104282 1152923703630104291 1155175503443789541 1155175503443789447"/>
    </vehicle>
    <vehicle id="39" depart="28.08">
        <route edges="1155175503443789926 1152923703630104667 1152923703630104791 6919783026478024047 1157427303257474415 1155175503443789125 6919783026478024046 1152923703630103918 1152923703630103896 1152923703630103892 1152923703630103889 1152923703630103891 1152923703630103897 1152923703630103899 1155175503443789417 1157427303257474443"/>
    </vehicle>
    <vehicle id="40" depart="28.80">
        <route edges="1152923703630104316 1152923703630104405 1157427303257474949 6924286626105394897 1152923703630104274 1152923703630104597 1152923703630104464 1152923703630104468 1152923703630104460 1152923703630104478 1157427303257475076"/>
    </vehicle>
    <vehicle id="41" depart="29.52">
        <route edges="1155175503443789926 1152923703630104667 1152923703630104791 6919783026478024047 1152923703630103919 1157427303257474370 1152923703630103869 1157427303257474367 1157427303257474369 1152923703630103875 1152923703630104658 1152923703630104370 1152923703630104342 1152923703630104270 1152923703630104304 1152923703630104306 1152923703630104323 1152923703630104285 1155175503443789540 1152923703630104335"/>
    </vehicle>
    <vehicle id="42" depart="30.24">
        <route edges="1157427303257475072 1152923703630104597 1152923703630104464 1152923703630104468 1152923703630104460 1152923703630104478 1152923703630104580 1152923703630104551 1152923703630104282 1152923703630104291 1152923703630104293 1157427303257474824 1152923703630103903 1152923703630103904 1152923703630104147 1152923703630103898 1159679103071159640 6919783026478024046 1157427303257474414"/>
    </vehicle>
    <vehicle id="43" depart="30.96">
        <route edges="1152923703630104171 1152923703630104180 1152923703630104182 6919783026478024404 1157427303257474772 1152923703630104308 1152923703630104282 1152923703630104291 1155175503443789541 1152923703630104199 1152923703630104328 1159679103071160198 1152923703630104299 6919783026478023867 1157427303257474235 1157427303257474237 1155175503443788993 1157427303257474243 1152923703630103738 1152923703630103734 1157427303257474229"/>
    </vehicle>
    <vehicle id="44" depart="31.68">
        <route edges="1155175503443789174 1157427303257474403 1152923703630103905 1152923703630103925 1152923703630103898 1152923703630103896 1152923703630103892 1152923703630103889 1152923703630103891 1152923703630103897 1155175503443789147 1155175503443789702 1152923703630104464 1152923703630104468 1152923703630104460 1152923703630104478 1152923703630104580"/>
    </vehicle>
    <vehicle id="45" depart="32.40">
        <route edges="1152923703630104797 1152923703630104806 1155175503443789907 1152923703630104652 1152923703630104664 1152923703630104666 1152923703630103869 1152923703630103871 1152923703630103880 1157427303257474378 1152923703630103884 6919783026478024017 1152923703630103889 1155175503443789139 1152923703630103978 1152923703630103760 1155175503443789012"/>
    </vehicle>
    <vehicle id="46" depart="33.12">
        <route edges="1152923703630103693 1152923703630104274 1152923703630104597 1152923703630104464 1152923703630104468 1152923703630104460 1152923703630104478 1157427303257475076"/>
    </vehicle>
    <vehicle id="47" depart="33.84">
        <route edges="1152923703630104301 1152923703630104568 1152923703630104322 1152923703630104405 1157427303257474949 6924286626105394897 1152923703630104274 1152923703630104551 1152923703630104282 1152923703630104291 1152923703630104293 1157427303257474824 1152923703630103903 1152923703630103904 1152923703630104147 1152923703630103898 1159679103071159640 6919783026478024046 1157427303257474414 1152923703630103929 1157427303257474401"/>
    </vehicle>
    <vehicle id="48" depart="34.56">
        <route edges="1155175503443789170 1155175503443789926 1152923703630104667 1152923703630104791 6919783026478024047 1157427303257474415 1155175503443789125 6919783026478024046 1152923703630103918 1152923703630103896 1152923703630103892 1152923703630103889 1152923703630103891 1152923703630103897 1155175503443789147 1155175503443789702 1152923703630104464 1152923703630104468 1152923703630104460"/>
    </vehicle>
    <vehicle id="49" depart="35.28">
        <route edges="1152923703630104301 1152923703630104568 1152923703630104322 1152923703630104405 1157427303257474949 6924286626105394897 1152923703630104274 1152923703630104551 1152923703630104282 1152923703630104291 1155175503443789541 1152923703630104199 1152923703630104328 1159679103071160198 1152923703630104299 6919783026478023867 1157427303257474235 1157427303257474237 1155175503443788993 1152923703630103747 1155175503443789090"/>
    </vehicle>
    <vehicle id="50" depart="36.00">
        <route edges="1152923703630104819 6919783026478024765 1152923703630104719 1152923703630103716 1155175503443790030 1152923703630104801"/>
    </vehicle>
    <vehicle id="51" depart="36.72">
        <route edges="1152923703630104659 1152923703630104658 1152923703630104370 1152923703630104342 1152923703630104270 1152923703630104304 1152923703630104306 1152923703630104323 1155175503443789533 1152923703630104311 6919783026478024424 1157427303257474792"/>
    </vehicle>
    <vehicle id="52" depart="37.44">
        <route edges="1152923703630103926 1152923703630103984 1157427303257474403 1152923703630103905 1152923703630103925 1152923703630103898 1152923703630103896 1152923703630103892 1152923703630103889 1155175503443789139 1152923703630103978 1152923703630103760 1152923703630103764 1152923703630103763 6919783026478023865 1152923703630103737 1155175503443789082"/>
    </vehicle>
    <vehicle id="53" depart="38.16">
        <route edges="1152923703630104812 1152923703630104695 1152923703630104785 1152923703630104753 1152923703630104641"/>
    </vehicle>
    <vehicle id="54" depart="38.88">
        <route edges="1152923703630104099 1152923703630103999 1152923703630104095 1152923703630104093 1152923703630103998 1152923703630104058 1152923703630103997 1152923703630103995 1157427303257474433 1152923703630103936 1152923703630104052 1155175503443789170 1155175503443789926 1152923703630104667 1152923703630104791 6919783026478024047 1157427303257474415 1155175503443789125 6919783026478024046 1152923703630103918 1152923703630103896 1152923703630103892 1152923703630103889 1155175503443789139 1152923703630103978 1152923703630103760 1152923703630103764 1152923703630103763 6919783026478023865 1152923703630103737 1152923703630103834 1152923703630103738 1155175503443788982 1152923703630103745"/>
    </vehicle>
    <vehicle id="55" depart="39.60">
        <route edges="1152923703630104216 1152923703630104481 1155175503443789502 1152923703630103693 1152923703630104274 1152923703630104551 1152923703630104282 1152923703630104291 1155175503443789541 1152923703630104199 1152923703630104328 1159679103071160198 1152923703630104299 6919783026478023867 1157427303257474235 1157427303257474237 1155175503443788993"/>
    </vehicle>
    <vehicle id="56" depart="40.32">
        <route edges="1157427303257474415 1152923703630103877 1157427303257474375 1152923703630103880 1152923703630103882 1152923703630103873 1155175503443789908 1152923703630104652 1157427303257475160 1152923703630104795 1152923703630104791 6919783026478024047 1152923703630103919"/>
    </vehicle>
    <vehicle id="57" depart="41.04">
        <route edges="1152923703630104576 1152923703630104580 1152923703630104551 1152923703630104282 1152923703630104291 1155175503443789541 1155175503443789447"/>
    </vehicle>
    <vehicle id="58" depart="41.76">
        <route edges="1152923703630104667 1152923703630104791 6919783026478024047 1152923703630103919 1157427303257474370 1152923703630103869 1157427303257474367 1157427303257474369 1152923703630103875 1152923703630104658 1152923703630104370 1152923703630104342 1152923703630104270 1152923703630104304 1152923703630104306 1152923703630104323 1155175503443789533 1152923703630104311"/>
    </vehicle>
    <vehicle id="59" depart="42.48">
        <route edges="1155175503443789342 1152923703630104093 1152923703630103998 1152923703630104058 1152923703630103997 1152923703630103995 1157427303257474433 1152923703630103936 1152923703630104052 1155175503443789170 1155175503443789926"/>
    </vehicle>
    <vehicle id="60" depart="43.20">
        <route edges="1152923703630104093 1152923703630103998 1152923703630104058 1152923703630103997 1152923703630103995 1157427303257474433 1152923703630103936 1152923703630104052 1155175503443789170 1155175503443789926 1152923703630104667 1152923703630104791 6919783026478024047 1152923703630103919 1157427303257474370 1152923703630103869 1157427303257474367 1157427303257474369 1152923703630103875 1152923703630104658 1152923703630104370 1152923703630104342 1157427303257474766 1152923703630104322 1152923703630104405 1157427303257474949 6924286626105394897 1152923703630104273 6919783026478024404 1159679103071160020"/>
    </vehicle>
    <vehicle id="61" depart="43.92">
        <route edges="1152923703630104216 1152923703630104481 1155175503443789502 1152923703630103693 1152923703630104274 1152923703630104551 1152923703630104282 1152923703630104291 1152923703630104293 1157427303257474824 1152923703630103903 1152923703630103904 1152923703630104147 1152923703630103898 1159679103071159640 6919783026478024046 1157427303257474414 1152923703630103929 1157427303257474401"/>
    </vehicle>
    <vehicle id="62" depart="44.64">
        <route edges="1152923703630104791 6919783026478024047 1152923703630103919 1157427303257474370 1152923703630103869 1157427303257474367 1157427303257474369 1152923703630103875 1152923703630104658 1152923703630104370 1152923703630104342 1157427303257474766 1152923703630104322 1152923703630104405 1157427303257474949 6924286626105394897 1152923703630104273 6919783026478024404 1159679103071160020"/>
    </vehicle>
    <vehicle id="63" depart="45.36">
        <route edges="1155175503443789147 1159679103071160198 1152923703630104299 1152923703630103735 1152923703630103748 1152923703630103751 1152923703630103755 1152923703630103757 1152923703630103760 1155175503443789012"/>
    </vehicle>
    <vehicle id="64" depart="46.08">
        <route edges="1157427303257474243 1152923703630103738 1155175503443788982 1155175503443788993 1152923703630103747 1155175503443789090"/>
    </vehicle>
    <vehicle id="65" depart="46.80">
        <route edges="1152923703630104659 1152923703630104658 1152923703630104370 1152923703630104342 1152923703630104270 1152923703630104304 1152923703630104306 1152923703630104323 1152923703630104285 1155175503443789540 1152923703630104335"/>
    </vehicle>
    <vehicle id="66" depart="47.52">
        <route edges="1155175503443789533 1152923703630104311 6919783026478024424 1152923703630104296 1157427303257474225 1152923703630103738 1155175503443788982 1155175503443788993 1152923703630103747 1152923703630103842 6919783026478023865 1152923703630103737 1155175503443789082"/>
    </vehicle>
    <vehicle id="67" depart="48.24">
        <route edges="1152923703630104270 1152923703630104304 1152923703630104306 1152923703630104323 1155175503443789533 1152923703630104311 6919783026478024424 1152923703630104296 1152923703630103729 1152923703630103728 1152923703630104618"/>
    </vehicle>
    <vehicle id="68" depart="48.96">
        <route edges="1152923703630104468 1152923703630104460 1152923703630104478 1152923703630104580 1152923703630104551 1152923703630104282 1152923703630104291 1155175503443789541 1152923703630104199 1152923703630104328 1159679103071160198 1152923703630104299 6919783026478023867 1157427303257474235 1157427303257474237 1155175503443788993 1152923703630103747 1155175503443789090"/>
    </vehicle>
    <vehicle id="69" depart="49.68">
        <route edges="1152923703630104629 1152923703630104370 1152923703630104342 1152923703630104270 1152923703630104304 1152923703630104306 1152923703630104323 1155175503443789533 1152923703630104311 6919783026478024424 1157427303257474792"/>
    </vehicle>
    <vehicle id="70" depart="50.40">
        <route edges="1152923703630104441 6919783026478024424 1152923703630104296 1152923703630103729 1152923703630103728"/>
    </vehicle>
    <vehicle id="71" depart="51.12">
        <route edges="1157427303257474433 1152923703630103936 1152923703630104052 1155175503443789170 1155175503443789926 1152923703630104667 1152923703630104791 6919783026478024047 1152923703630103919 1157427303257474370 1152923703630103869 1157427303257474367 1157427303257474369 1152923703630103875 1152923703630104658 1152923703630104370 1152923703630104342 1157427303257474766 1152923703630104322 1152923703630104405 1157427303257474949 6924286626105394897 1152923703630104273 6919783026478024404 1159679103071160020"/>
    </vehicle>
    <vehicle id="72" depart="51.84">
        <route edges="1152923703630104171 1152923703630104180 1152923703630104182 6919783026478024404 1152923703630104276 1152923703630104274"/>
    </vehicle>
    <vehicle id="73" depart="52.56">
        <route edges="1152923703630104629 1152923703630104370 1152923703630104342 1152923703630104270 1152923703630104304 1152923703630104306 1152923703630104323 1152923703630104285 1155175503443789540 6919783026478024415 1152923703630104287 1157427303257474226 1152923703630103739 1152923703630103748"/>
    </vehicle>
    <vehicle id="74" depart="53.28">
        <route edges="1152923703630104171 1152923703630104180 1152923703630104182 6919783026478024404 1157427303257474772 1152923703630104308 1152923703630104282 1152923703630104291 1155175503443789541 1152923703630104199 1152923703630104328 1159679103071160198 1152923703630104299 6919783026478023867 1157427303257474235 1157427303257474237 1155175503443788993 1152923703630103747 1152923703630103842 6919783026478023865 1157427303257474233 1152923703630103779 1152923703630103728 1152923703630104618"/>
    </vehicle>
    <vehicle id="75" depart="54.00">
        <route edges="1155175503443789344 1152923703630104095 1152923703630104093 1152923703630103998 1152923703630104058 1152923703630103997 1152923703630103995 1157427303257474433 1152923703630103936 1152923703630104052 1155175503443789170 1155175503443789926 1152923703630104667 1152923703630104791 6919783026478024047 1152923703630103919 1157427303257474370"/>
    </vehicle>
    <vehicle id="76" depart="54.72">
        <route edges="1152923703630103737 1152923703630103834 1152923703630103738 1155175503443788982 1155175503443788993 1152923703630103747 1155175503443789090"/>
    </vehicle>
    <vehicle id="77" depart="55.44">