<?xml version="1.0" encoding="UTF-8"?>

<!-- generated on 2025-10-05 22:58:19.203726 by randomTrips.py UNKNOWN
<configuration>
    <net-file value="scenarios/from_api/api.net.xml"/>
    <output-trip-file value="scenarios/from_api/api.trips.xml"/>
    <route-file value="scenarios/from_api/api.rou.xml"/>
    <end value="2500.0"/>
    <period value="2.0"/>
</configuration>
-->

<!-- generated on 2025-10-05 22:58:18 by Eclipse SUMO duarouter Version 1.24.0
<duarouterConfiguration xmlns:xsi="http://www.w3.org/2001/XMLSchema-instance" xsi:noNamespaceSchemaLocation="http://sumo.dlr.de/xsd/duarouterConfiguration.xsd">

    <input>
        <net-file value="scenarios/from_api/api.net.xml"/>
        <route-files value="scenarios/from_api/api.trips.xml"/>
    </input>

    <output>
        <output-file value="scenarios/from_api/api.rou.xml"/>
        <alternatives-output value="NUL"/>
    </output>

    <time>
        <begin value="0"/>
        <end value="2500.0"/>
    </time>

    <report>
        <no-warnings value="true"/>
        <ignore-errors value="true"/>
        <no-step-log value="true"/>
    </report>

</duarouterConfiguration>
-->

<routes xmlns:xsi="http://www.w3.org/2001/XMLSchema-instance" xsi:noNamespaceSchemaLocation="http://sumo.dlr.de/xsd/routes_file.xsd">
    <vehicle id="0" depart="0.00">
        <route edges="1152923703630104058 1152923703630103997 1152923703630103995 1152923703630104134 1152923703630103994 1152923703630103993 1152923703630103992 1152923703630103991 1152923703630103933 1152923703630104057 1152923703630103934 1152923703630103996 6919783026478024065 1157427303257474433 1152923703630104127 1152923703630103938 1152923703630103939 1152923703630103940 6919783026478024064 1152923703630103936 1152923703630104052 1155175503443789170 1152923703630103969 1152923703630104002 1152923703630103928 1152923703630104001 1152923703630103967 1152923703630103968 1152923703630104136 1152923703630103927 1152923703630104059 1152923703630104004 1152923703630104003 1155175503443789926 1152923703630104667 1152923703630104791 6919783026478024047 1157427303257474415 1155175503443789125 6919783026478024046 1152923703630103918 1152923703630104110 1152923703630104009 1152923703630103912 1152923703630103910 1152923703630103911 1152923703630103909 1152923703630103913 1152923703630104140 1152923703630103883 1152923703630104011 1152923703630104010 1152923703630104148 1152923703630104021 1152923703630104012 1152923703630103886 1152923703630103893 6922034826291709272 1152923703630103896 1152923703630103894 1152923703630103892 1152923703630103890 1152923703630103889 1152923703630103972 1155175503443789139 1152923703630104120 1152923703630103943 1152923703630104044 6919783026478024106 1157427303257474474 6919783026478024025 1152923703630103897 1152923703630103899 1155175503443789417 1152923703630103945 1152923703630103946 6919783026478024075 1152923703630103947 1152923703630103707 1152923703630103698 6919783026478024032 1152923703630103904 1155175503443789395 1152923703630103949 1152923703630103990 1152923703630103989 1152923703630104105 1152923703630104146 1152923703630103965 1152923703630103988"/>
    </vehicle>
    <vehicle id="1" depart="2.00">
        <route edges="1152923703630104791 6919783026478024047 1152923703630103919 1152923703630104121 1152923703630104015 6919783026478024002 1152923703630103874 1152923703630104122 1152923703630104082 1152923703630104083 1152923703630103876 1152923703630104123 1152923703630104124 1152923703630103869 1152923703630104017 1152923703630104018 6919783026478023999 1157427303257474367 6919783026478024001 1157427303257474369 1152923703630103875 1152923703630104125 1152923703630104014 1152923703630104701 1152923703630104700 1152923703630104703 1152923703630104702 1152923703630104704 1152923703630104663 1152923703630104788 6919783026478024786 1152923703630104658 1152923703630104796 1152923703630104368 1152923703630104369 1152923703630104367 1155175503443789499 1152923703630104370 1152923703630104344 1152923703630104342 1152923703630104382 1152923703630104374 1152923703630104375 1152923703630104345 1152923703630104347 1152923703630104346 1152923703630104349 1152923703630104348 6919783026478024398 1152923703630104270 1152923703630104325 1152923703630103695 1152923703630104304 1152923703630103694 1152923703630103696"/>
    </vehicle>
    <vehicle id="2" depart="4.00">
        <route edges="1152923703630104787 1152923703630104756 1152923703630104755 1152923703630104754 1152923703630104775 1152923703630104774 1152923703630104753 6919783026478023844 1152923703630103716 1155175503443790030 1152923703630104801 1152923703630104780 1152923703630104778 6919783026478024765 1152923703630104637"/>
    </vehicle>
    <vehicle id="3" depart="6.00">
        <route edges="1152923703630104823 1152923703630104673 1152923703630104674 1152923703630104675 1152923703630104676 6919783026478024049 1152923703630103921 1152923703630103929 1152923703630103905 1152923703630104135 1152923703630104112 6919783026478024053 1152923703630103925 1152923703630104143 1152923703630104162 1152923703630103966 1152923703630104160 1152923703630104161 1152923703630104144 1152923703630103948 6919783026478024026 1152923703630103898 1152923703630103971 6919783026478024024 1152923703630103896 1152923703630103894 1152923703630103892 1152923703630103890 1152923703630103889 1152923703630103972 1155175503443789139 1152923703630104120 1152923703630103943 1152923703630104044 6919783026478024106 1157427303257474474 6919783026478024025 1152923703630103897 1155175503443789147 1152923703630104170 1152923703630103854 1152923703630103853 1152923703630103852 1152923703630103851 1152923703630103850 1152923703630103849 1152923703630103848 1152923703630103847 1152923703630103846 1152923703630103845 1152923703630103844 6922034826291709830 1152923703630104454 1152923703630104571 1152923703630104558 1152923703630104585 1152923703630103704 6919783026478024592 1152923703630104464 1152923703630104608 1152923703630104518 1152923703630104586 1152923703630104463 1152923703630104587 1152923703630104601 1152923703630104462 1152923703630104588 1152923703630104461 1152923703630104590 1152923703630104565 1152923703630104589 1152923703630104468 1152923703630104460 1152923703630104519 1152923703630104613 1152923703630104602 1152923703630104603 1152923703630104459 1152923703630104612 1152923703630104523 1152923703630104611 1152923703630104526 1155175503443789726 1152923703630104556 1152923703630104525 1152923703630104557 1152923703630104469 1152923703630104470 1152923703630104471 1152923703630104472 1152923703630104527"/>
    </vehicle>
    <vehicle id="4" depart="8.00">
        <route edges="1152923703630104654 6919783026478024792 1157427303257475160 1152923703630104734 1152923703630104733 1152923703630104694 1152923703630104655 1152923703630104710 1152923703630104709 1152923703630104795 1152923703630104794 1152923703630104793 6919783026478024919 1152923703630104791 6919783026478024047 1157427303257474415 1155175503443789125 6919783026478024046 1152923703630103918 1152923703630104110 1152923703630104009 1152923703630103912 1152923703630103910 1152923703630103911 1152923703630103909 1152923703630103913 1152923703630104140 1152923703630103883 1152923703630104011 1152923703630104010 1152923703630104148 1152923703630104021 1152923703630104012 1152923703630103886 1152923703630103893 6922034826291709272 1152923703630103896 1152923703630103894 1152923703630103892 1152923703630103890 1152923703630103889 1152923703630103972 1155175503443789139 1152923703630104120 1152923703630103943 1152923703630104044 6919783026478024106 1152923703630103978 1152923703630103760 1152923703630103711 1152923703630103789 1152923703630103754 1152923703630103764 1152923703630103763 6919783026478023865 1152923703630103737 1152923703630103813 1152923703630103781 1152923703630103828 1152923703630103814 1152923703630103782 1152923703630103834 1152923703630103783 1152923703630103800 1152923703630103784 1152923703630103742 1152923703630103743 1152923703630103780 1152923703630103738 1152923703630103736 1155175503443788982 1155175503443788993 1152923703630103773 1152923703630103747 1152923703630103772 1152923703630103842 1152923703630103752"/>
    </vehicle>
    <vehicle id="5" depart="10.00">
        <route edges="1152923703630104580 1152923703630104457 1152923703630104615 6919783026478024595 1152923703630104467 1152923703630104607 1152923703630104520 1152923703630104616 1152923703630104550 1152923703630104617 1152923703630104279 1152923703630104455 1152923703630104610 1152923703630104579 6919783026478024679 1157427303257475047 1152923703630104597 1152923703630104596 1152923703630104524 1152923703630104598 1152923703630104456 1152923703630104604 1152923703630104521 1152923703630104599 1152923703630104283 1152923703630104605 1152923703630104517 1152923703630104609 1152923703630104466 1152923703630104600 1152923703630104522 1152923703630103705 1152923703630104465 1152923703630104559 1152923703630104560 1152923703630104464 1152923703630104608 1152923703630104518 1152923703630104586 1152923703630104463 1152923703630104587 1152923703630104601 1152923703630104462 1152923703630104588 1152923703630104461 1152923703630104590 1152923703630104565 1152923703630104589 1152923703630104468 1152923703630104460 1152923703630104519 1152923703630104613 1152923703630104602 1152923703630104603 1152923703630104459 1152923703630104612 1152923703630104523 1152923703630104611 1152923703630104526 1155175503443789726 1152923703630104556 1152923703630104525 1152923703630104557 1152923703630104469 1152923703630104470 1152923703630104471 1152923703630104472 1152923703630104527 1152923703630104473 1152923703630104528 1152923703630104453 1152923703630104529 1152923703630104474 1152923703630104530 1152923703630104475 1152923703630104476 1152923703630104477 1152923703630104479 1152923703630104320 1152923703630104321 1152923703630103699 6919783026478024622 1152923703630104494 1152923703630104258 1152923703630104495 1152923703630104449 1152923703630104496 1152923703630104256 1152923703630104497 1152923703630104252 1152923703630104498 1152923703630104264 1152923703630104499 1152923703630104259 6919783026478024578 1152923703630104450 1152923703630104500 1152923703630104480 1152923703630104510 1152923703630104263 1152923703630104447 1152923703630104501 1152923703630104386 1152923703630104502 1152923703630104268 1152923703630104509 1152923703630104257 1152923703630104491 1152923703630104508 1152923703630104265 1152923703630104507 1152923703630104253 1152923703630104506 1152923703630104511 1152923703630104262 1152923703630104503 1152923703630104267 1152923703630104504 1152923703630103687 1152923703630104505 1152923703630104481 1152923703630104254 1152923703630104512"/>
    </vehicle>
    <vehicle id="6" depart="12.00">
        <route edges="1152923703630103904 1152923703630104147 1152923703630103902 1152923703630103900 1152923703630103977 1152923703630103898 1152923703630103971 6919783026478024024 1152923703630103896 1152923703630103894 1152923703630103892 1152923703630103890 1152923703630103889 1152923703630103972 1155175503443789139 1152923703630104120 1152923703630103943 1152923703630104044 6919783026478024106 1157427303257474474 6919783026478024025 1152923703630103897 1155175503443789147 1152923703630104170 1152923703630103854 1152923703630103853 1152923703630103852 1152923703630103851 1152923703630103850 1152923703630103849 1152923703630103848 1152923703630103847 1152923703630103846 1152923703630103845 1152923703630103844 6922034826291709830 1152923703630104454 1152923703630104571 1152923703630104558 1152923703630104585 1152923703630103704 6919783026478024592 1152923703630104464 1152923703630104608 1152923703630104518 1152923703630104586 1152923703630104463 1152923703630104587 1152923703630104601 1152923703630104462 1152923703630104588 1152923703630104461 1152923703630104590 1152923703630104565 1152923703630104589 1152923703630104468 1152923703630104460 1152923703630104519 1152923703630104613 1152923703630104602 1152923703630104603 1152923703630104459 1152923703630104612 1152923703630104523 1152923703630104611 1152923703630104526 1152923703630104478 1152923703630104614 1152923703630104458 1152923703630104580 1152923703630104457 1152923703630104615 6919783026478024595 1152923703630104467 1152923703630104607 1152923703630104520 1152923703630104616 1152923703630104550 1152923703630104617 1152923703630104279 1152923703630104455 1152923703630104610 1152923703630104579 6919783026478024679 1152923703630104551 1152923703630104281 1152923703630104282 1152923703630104284 1152923703630104564 1152923703630104288 1152923703630104563 1152923703630104291 1152923703630104562 1155175503443789541 1152923703630104387 1152923703630104197 1155175503443789447 1152923703630104206 1152923703630104207 1152923703630104200"/>
    </vehicle>
    <vehicle id="7" depart="14.00">
        <route edges="1152923703630104455 1152923703630104610 1152923703630104579 6919783026478024679 1152923703630104551 1152923703630104281 1152923703630104282 1152923703630104284 1152923703630104564 1152923703630104288 1152923703630104563 1152923703630104291 1152923703630104562 1155175503443789541 1152923703630104387 1152923703630104197 1152923703630104199 1152923703630104198 1152923703630104388 1152923703630104432 1152923703630104326 1152923703630104433 6919783026478024456 1157427303257474824 1152923703630104626 1152923703630104627 1152923703630103855 1152923703630103856 1152923703630103857 1152923703630103858 1152923703630103859 1152923703630103860 1152923703630103861 1152923703630103862 1152923703630103863 1152923703630103864 1152923703630103865 6919783026478024031 1152923703630103903 1152923703630103975 1152923703630103976 1152923703630103904 1152923703630104147 1152923703630103902 1152923703630103900 1152923703630103977 1152923703630103898 1152923703630103971 6919783026478024024 1152923703630103896 1152923703630103894 1152923703630103892 1152923703630103890 1152923703630103889 1152923703630103972 1155175503443789139 1152923703630104120 1152923703630103943 1152923703630104044 6919783026478024106 1152923703630103978 1152923703630103760 1152923703630103711 1152923703630103789 1152923703630103754 1152923703630103764 1152923703630103763 6919783026478023865 1157427303257474233 1152923703630103779 1152923703630103728 1152923703630104300 1152923703630104618"/>
    </vehicle>
    <vehicle id="8" depart="16.00">
        <route edges="1152923703630103995 1152923703630104134 1152923703630103994 1152923703630103993 1152923703630103992 1152923703630103991 1152923703630103933 1152923703630104057 1152923703630103934 1152923703630103996 6919783026478024065 1157427303257474433 1152923703630104127 1152923703630103938 1152923703630103939 1152923703630103940 6919783026478024064 1152923703630103936 1152923703630104052 1155175503443789170 1152923703630103969 1152923703630104002 1152923703630103928 1152923703630104001 1152923703630103967 1152923703630103968 1152923703630104136 1152923703630103927 1152923703630104059 1152923703630104004 1152923703630104003 1155175503443789926 1152923703630104667 1152923703630104791 6919783026478024047 1157427303257474415 1155175503443789125 6919783026478024046 1152923703630103918 1152923703630104110 1152923703630104009 1152923703630103912 1152923703630103910 1152923703630103911 1152923703630103909 1152923703630103913 1152923703630104140 1152923703630103883 1152923703630104011 1152923703630104010 1152923703630104148 1152923703630104021 1152923703630104012 1152923703630103886 1152923703630103893 6922034826291709272 1152923703630103896 1152923703630103894 1152923703630103892 1152923703630103890 1152923703630103889 1152923703630103972 1155175503443789139 1152923703630104120 1152923703630103943 1152923703630104044 6919783026478024106 1157427303257474474 6919783026478024025 1152923703630103897 1155175503443789147 1152923703630104170 1152923703630103854 1152923703630103853 1152923703630103852 1152923703630103851 1152923703630103850 1152923703630103849 1152923703630103848 1152923703630103847 1152923703630103846 1152923703630103845 1152923703630103844 6922034826291709830 1159679103071160198 1152923703630104299 1152923703630103771 1152923703630103827 1152923703630103766 1152923703630103767 1152923703630103735"/>
    </vehicle>
    <vehicle id="9" depart="18.00">
        <route edges="1157427303257474783 1155175503443789534 1152923703630104460 1152923703630104519 1152923703630104613 1152923703630104602 1152923703630104603 1152923703630104459 1152923703630104612 1152923703630104523 1152923703630104611 1152923703630104526 1152923703630104478 1152923703630104614 1152923703630104458 1152923703630104580 1152923703630104457 1152923703630104615 6919783026478024595 1152923703630104467 1152923703630104607 1152923703630104520 1152923703630104616 1152923703630104550 1152923703630104617 1152923703630104279 1155175503443789703 1152923703630104410 1152923703630104581 1152923703630104411 1152923703630104582 1152923703630104310"/>
    </vehicle>
    <vehicle id="10" depart="20.00">
        <route edges="1152923703630104490 1152923703630104319 1152923703630104543 1152923703630104542 1152923703630104329 1152923703630104269 1152923703630104406 1152923703630104541 1152923703630104272 6919783026478024401 1157427303257474769 1152923703630104274 1152923703630104407 1152923703630104277 1152923703630104554 1152923703630104408 1152923703630104555 1152923703630104278 1152923703630104553 6919783026478024407 1152923703630104279 1152923703630104455 1152923703630104610 1152923703630104579 6919783026478024679 1152923703630104551 1152923703630104281 1152923703630104282 1152923703630104284 1152923703630104564 1152923703630104288 1152923703630104563 1152923703630104291 1152923703630104562 1155175503443789541 1152923703630104387 1152923703630104197 1152923703630104199 1152923703630104198 1152923703630104388 1152923703630104432 1152923703630104326 1152923703630104433 6919783026478024456 1157427303257474824 1152923703630104626 1152923703630104627 1152923703630103855 1152923703630103856 1152923703630103857 1152923703630103858 1152923703630103859 1152923703630103860 1152923703630103861 1152923703630103862 1152923703630103863 1152923703630103864 1152923703630103865 6919783026478024031 1152923703630103903 1152923703630103975 1152923703630103976 1152923703630103904 1152923703630104147 1152923703630103902 1152923703630103900 1152923703630103977 1152923703630103898 1152923703630103971 6919783026478024024 1152923703630103896 1152923703630103894 1152923703630103892 1152923703630103890 1152923703630103889 1152923703630103972 1155175503443789139 1152923703630104120 1152923703630103943 1152923703630104044 6919783026478024106 1152923703630103978 1152923703630103760 1152923703630103711 1152923703630103789 1152923703630103754 1152923703630103764 1152923703630103763 6919783026478023865 1152923703630103737 1152923703630103813 1152923703630103781 1152923703630103828 1152923703630103814 1152923703630103782 1152923703630103834 1152923703630103783 1152923703630103800 1152923703630103784 1152923703630103742 1152923703630103743 1152923703630103780 1152923703630103738 1152923703630103736 1152923703630103734 1152923703630103769 1157427303257474229"/>
    </vehicle>
    <vehicle id="11" depart="22.00">
        <route edges="6922034826291709830 1152923703630104454 1152923703630104571 1152923703630104558 1152923703630104585 1152923703630103704 6919783026478024592 1152923703630104464 1152923703630104608 1152923703630104518 1152923703630104586 1152923703630104463 1152923703630104587 1152923703630104601 1152923703630104462 1152923703630104588 1152923703630104461 1152923703630104590 1152923703630104565 1152923703630104589 1152923703630104468 1152923703630104460 1152923703630104519 1152923703630104613 1152923703630104602 1152923703630104603 1152923703630104459 1152923703630104612 1152923703630104523 1152923703630104611 1152923703630104526 1152923703630104478 1152923703630104614 1152923703630104458 1152923703630104580 1152923703630104457 1152923703630104615 6919783026478024595 1152923703630104467 1152923703630104607 1152923703630104520 1152923703630104616 1152923703630104550 1152923703630104617 1152923703630104279 1155175503443789703 1152923703630104410"/>
    </vehicle>
    <vehicle id="12" depart="24.00">
        <route edges="1152923703630103703 1152923703630103880 6919783026478024010 1152923703630103882 1152923703630103873 1152923703630104772 1152923703630104773 1152923703630104661 1152923703630104706 1155175503443789908 1152923703630104652 1152923703630104736 1152923703630104653 1152923703630104735 1152923703630104712 1152923703630104654 6919783026478024792 1157427303257475160 1152923703630104734 1152923703630104733 1152923703630104694 1152923703630104655 1152923703630104710 1152923703630104709 6919783026478024795 1152923703630104667"/>
    </vehicle>
    <vehicle id="13" depart="26.00">
        <route edges="1152923703630104090 1155175503443789348 1152923703630104132 1152923703630103997 1152923703630103995 1152923703630104134 1152923703630103994 1152923703630103993 1152923703630103992 1152923703630103991 1152923703630103933 1152923703630104057 1152923703630103934 1152923703630103996 6919783026478024065 1157427303257474433 1152923703630104127 1152923703630103938 1152923703630103939 1152923703630103940 6919783026478024064 1152923703630103936 1152923703630104052 1155175503443789170 1152923703630103969 1152923703630104002 1152923703630103928 1152923703630104001 1152923703630103967 1152923703630103968 1152923703630104136 1152923703630103927 1152923703630104059 1152923703630104004 1152923703630104003 1155175503443789926 1152923703630104667 1152923703630104791 6919783026478024047 1157427303257474415 1155175503443789125 6919783026478024046 1152923703630103918 1152923703630104110 1152923703630104009 1152923703630103912 1152923703630103910 1152923703630103911 1152923703630103909 1152923703630103913 1152923703630104140 1152923703630103883 1152923703630104011 1152923703630104010 1152923703630104148 1152923703630104021 1152923703630104012 1152923703630103886 1152923703630103893 6922034826291709272 1152923703630103896 1152923703630103894 1152923703630103892 1152923703630103890 1152923703630103889 1152923703630103972 1155175503443789139 1152923703630104120 1152923703630103943 1152923703630104044 6919783026478024106 1157427303257474474 6919783026478024025 1152923703630103897 1155175503443789147 1152923703630104170 1152923703630103854 1152923703630103853 1152923703630103852 1152923703630103851 1152923703630103850 1152923703630103849 1152923703630103848 1152923703630103847 1152923703630103846 1152923703630103845 1152923703630103844 6922034826291709830 1152923703630104454 1152923703630104571 1152923703630104558 1152923703630104585 1152923703630103704 6919783026478024592 1152923703630104464 1152923703630104608 1152923703630104518 1152923703630104586 1152923703630104463 1152923703630104587 1152923703630104601 1152923703630104462 1152923703630104588 1152923703630104461 1152923703630104590 1152923703630104565 1152923703630104589 1152923703630104468 1152923703630104460 1152923703630104519 1152923703630104613 1152923703630104602 1152923703630104603 1152923703630104459 1152923703630104612 1152923703630104523 1152923703630104611 1152923703630104526 1155175503443789726 1152923703630104556 1152923703630104525 1152923703630104557"/>
    </vehicle>
    <vehicle id="14" depart="28.00">
        <route edges="1152923703630104522 1152923703630103705 1152923703630104465 1152923703630104559 1152923703630104560 1152923703630104464 1152923703630104608 1152923703630104518 1152923703630104586 1152923703630104463 1152923703630104587 1152923703630104601 1152923703630104462 1152923703630104588 1152923703630104461 1152923703630104590 1152923703630104565 1152923703630104589 1152923703630104468 1152923703630104460 1152923703630104519 1152923703630104613 1152923703630104602 1152923703630104603 1152923703630104459 1152923703630104612 1152923703630104523 1152923703630104611 1152923703630104526 1152923703630104478 1152923703630104614 1152923703630104458 1152923703630104580 1152923703630104457 1152923703630104615 6919783026478024595 1152923703630104467 1152923703630104607 1152923703630104520 1152923703630104616 1152923703630104550 1152923703630104617 1152923703630104279 1152923703630104455 1152923703630104610 1152923703630104579 6919783026478024679 1152923703630104551 1152923703630104281 1152923703630104282 1152923703630104284 1152923703630104564 1152923703630104288 1152923703630104563 1152923703630104291 1152923703630104562 1155175503443789541 1152923703630104387 1152923703630104197 1152923703630104199 1152923703630104198 1152923703630104388 1152923703630104432 1152923703630104326 1152923703630104433 6919783026478024456 1157427303257474824 1152923703630104626 1152923703630104627 1152923703630103855 1152923703630103856 1152923703630103857 1152923703630103858 1152923703630103859 1152923703630103860 1152923703630103861 1152923703630103862 1152923703630103863 1152923703630103864 1152923703630103865 6919783026478024031 1152923703630103903 1152923703630103975 1152923703630103976 1152923703630103904 1152923703630104147 1152923703630103902 1152923703630103900 1152923703630103977 1152923703630103898 1152923703630103971 6919783026478024024 1152923703630103896 1152923703630103894 1152923703630103892 1152923703630103890"/>
    </vehicle>
    <vehicle id="15" depart="30.00">
        <route edges="1152923703630104101 1155175503443789344 1152923703630104129 1152923703630104095 1152923703630104000 1152923703630104093 1152923703630103998 1152923703630104058 1152923703630103997 1152923703630103995 1152923703630104134 1152923703630103994 1152923703630103993 1152923703630103992 1152923703630103991 1152923703630103933 1152923703630104057 1152923703630103934 1152923703630103996 6919783026478024065 1157427303257474433 1152923703630104127 1152923703630103938 1152923703630103939 1152923703630103940 6919783026478024064 1152923703630103936 1152923703630104052 1155175503443789170 1152923703630103969 1152923703630104002 1152923703630103928 1152923703630104001 1152923703630103967 1152923703630103968 1152923703630104136 1152923703630103927 1152923703630104059 1152923703630104004 1152923703630104003 1155175503443789926 1152923703630104667 1152923703630104791 6919783026478024047 1157427303257474415 1155175503443789125 6919783026478024046 1152923703630103918 1152923703630104110 1152923703630104009 1152923703630103912 1152923703630103910 1152923703630103911 1152923703630103909 1152923703630103913 1152923703630104140 1152923703630103883 1152923703630104011 1152923703630104010 1152923703630104148 1152923703630104021 1152923703630104012 1152923703630103886 1152923703630103893 6922034826291709272 1152923703630103896 1152923703630103894 1152923703630103892 1152923703630103890 1152923703630103889 1152923703630103972 1155175503443789139 1152923703630104120 1152923703630103943 1152923703630104044 6919783026478024106 1152923703630103978 1152923703630103760 1152923703630103711 1152923703630103789 1152923703630103754 1152923703630103764 1152923703630103763 6919783026478023865 1152923703630103737 1152923703630103813 1152923703630103781 1152923703630103828 1152923703630103814 1152923703630103782 1152923703630103834 1152923703630103783 1152923703630103800 1152923703630103784 1152923703630103742 1152923703630103743 1152923703630103780 1152923703630103738 1152923703630103736 1152923703630103734 1152923703630103769"/>
    </vehicle>
    <vehicle id="16" depart="32.00">
        <route edges="1152923703630104266 1152923703630104494 1152923703630104258 1152923703630104495 1152923703630104449 1152923703630104496 1152923703630104256 1152923703630104497 1152923703630104252 1152923703630104498 1152923703630104264 1152923703630104499 1152923703630104259 6919783026478024578 1152923703630104450 1152923703630104500 1152923703630104480 1152923703630104510 1152923703630104263 1152923703630104447 1152923703630104501 1152923703630104386 1152923703630104502 1152923703630104268 1152923703630104509 1152923703630104257 1152923703630104491 1152923703630104508 1152923703630104265 1152923703630104507 1152923703630104253 1152923703630104506 1152923703630104511 1152923703630104262 1152923703630104503 1152923703630104267 1152923703630104504 1152923703630103687 1152923703630104505 1152923703630104481 1155175503443789502 1152923703630104383 1152923703630103693 1152923703630104490 1152923703630104319 1152923703630104543 1152923703630104542 1152923703630104329 1152923703630104269 1152923703630104406 1152923703630104541 1152923703630104272 6919783026478024401 1157427303257474769 1152923703630104274 1152923703630104407 1152923703630104277 1152923703630104554 1152923703630104408 1152923703630104555 1152923703630104278 1152923703630104553 6919783026478024407 1152923703630104279 1152923703630104455 1152923703630104610 1152923703630104579 6919783026478024679 1152923703630104551 1152923703630104281 1152923703630104282 1152923703630104284 1152923703630104564 1152923703630104288 1152923703630104563 1152923703630104291 1152923703630104562 1155175503443789541 1152923703630104387 1152923703630104197 1152923703630104199 1152923703630104198 1152923703630104388 1152923703630104432 1152923703630104326 1152923703630104433 6919783026478024456 1157427303257474824 1152923703630104626 1152923703630104627 1152923703630103855 1152923703630103856 1152923703630103857 1152923703630103858 1152923703630103859 1152923703630103860 1152923703630103861 1152923703630103862 1152923703630103863 1152923703630103864 1152923703630103865 6919783026478024031 1152923703630103903 1152923703630103975"/>
    </vehicle>
    <vehicle id="17" depart="34.00">