<?xml version="1.0" encoding="UTF-8"?>

<!-- generated on 2025-10-05 22:58:11 by Eclipse SUMO netconvert Version 1.24.0
<netconvertConfiguration xmlns:xsi="http://www.w3.org/2001/XMLSchema-instance" xsi:noNamespaceSchemaLocation="http://sumo.dlr.de/xsd/netconvertConfiguration.xsd">

    <input>
        <node-files value="scenarios/from_api/api.nod.xml"/>
        <edge-files value="scenarios/from_api/api.edg.xml"/>
    </input>

    <output>
        <output-file value="scenarios/from_api/api.net.xml"/>
    </output>

</netconvertConfiguration>
-->

<net version="1.20" junctionCornerDetail="5" limitTurnSpeed="5.50" xmlns:xsi="http://www.w3.org/2001/XMLSchema-instance" xsi:noNamespaceSchemaLocation="http://sumo.dlr.de/xsd/net_file.xsd">

    <location netOffset="46.87,23.52" convBoundary="0.00,0.00,0.02,0.01" origBoundary="-46.87,-23.52,-46.85,-23.50" projParameter="!"/>

    <edge id=":1159_0" function="internal">
        <lane id=":1159_0_0" index="0" speed="13.89" length="0.21" shape="-0.62,-1.46 -0.42,-1.53"/>
    </edge>
    <edge id=":1160_0" function="internal">
        <lane id=":1160_0_0" index="0" speed="13.89" length="0.11" shape="-1.57,-0.26 -1.58,-0.15"/>
    </edge>
    <edge id=":1163_0" function="internal">
        <lane id=":1163_0_0" index="0" speed="13.89" length="0.10" shape="0.50,1.53 0.59,1.50"/>
    </edge>
    <edge id=":1164_0" function="internal">
        <lane id=":1164_0_0" index="0" speed="13.89" length="0.34" shape="0.50,1.53 0.16,1.60"/>
    </edge>
    <edge id=":1165_0" function="internal">
        <lane id=":1165_0_0" index="0" speed="13.89" length="0.40" shape="-1.06,-1.18 -0.83,-1.50"/>
    </edge>
    <edge id=":1165_1" function="internal">
        <lane id=":1165_1_0" index="0" speed="3.87" length="1.82" shape="-1.06,-1.18 0.75,-1.41"/>
    </edge>
    <edge id=":1166_0" function="internal">
        <lane id=":1166_0_0" index="0" speed="13.89" length="0.19" shape="-1.59,-0.12 -1.56,-0.30"/>
    </edge>
    <edge id=":1167_0" function="internal">
        <lane id=":1167_0_0" index="0" speed="13.89" length="0.10" shape="-1.56,-0.29 -1.54,-0.38"/>
    </edge>
    <edge id=":1168_0" function="internal">
        <lane id=":1168_0_0" index="0" speed="13.89" length="0.10" shape="-1.56,-0.30 -1.57,-0.27"/>
    </edge>
    <edge id=":1169_0" function="internal">
        <lane id=":1169_0_0" index="0" speed="13.89" length="1.18" shape="-1.47,0.64 -0.73,1.56"/>
    </edge>
    <edge id=":1170_0" function="internal">
        <lane id=":1170_0_0" index="0" speed="13.89" length="0.33" shape="1.31,-0.93 1.12,-1.21"/>
    </edge>
    <edge id=":1171_0" function="internal">
        <lane id=":1171_0_0" index="0" speed="13.89" length="0.76" shape="1.45,0.81 1.62,0.07"/>
    </edge>
    <edge id=":1171_1" function="internal">
        <lane id=":1171_1_0" index="0" speed="3.73" length="1.72" shape="0.74,-1.41 1.62,0.07"/>
    </edge>
    <edge id=":1172_0" function="internal">
        <lane id=":1172_0_0" index="0" speed="13.89" length="0.40" shape="0.07,1.60 -0.33,1.57"/>
    </edge>
    <edge id=":1173_0" function="internal">
        <lane id=":1173_0_0" index="0" speed="13.89" length="0.10" shape="-0.56,1.50 -0.58,1.49"/>
    </edge>
    <edge id=":1174_0" function="internal">
        <lane id=":1174_0_0" index="0" speed="13.89" length="1.10" shape="-1.61,1.01 -0.61,1.48"/>
    </edge>
    <edge id=":1175_0" function="internal">
        <lane id=":1175_0_0" index="0" speed="13.89" length="0.77" shape="-1.34,-1.15 -1.53,-0.41"/>
    </edge>
    <edge id=":1176_0" function="internal">
        <lane id=":1176_0_0" index="0" speed="13.89" length="0.31" shape="1.31,-0.92 1.10,-1.16"/>
    </edge>
    <edge id=":1177_0" function="internal">
        <lane id=":1177_0_0" index="0" speed="4.17" length="1.20" shape="1.60,0.11 1.23,-1.03"/>
    </edge>
    <edge id=":1177_1" function="internal">
        <lane id=":1177_1_0" index="0" speed="3.61" length="2.65" shape="1.60,0.11 -0.49,-1.52"/>
    </edge>
    <edge id=":1177_2" function="internal">
        <lane id=":1177_2_0" index="0" speed="13.89" length="0.22" shape="-0.69,-1.43 -0.49,-1.52"/>
    </edge>
    <edge id=":1177_3" function="internal">
        <lane id=":1177_3_0" index="0" speed="3.82" length="1.96" shape="-0.69,-1.43 1.23,-1.03"/>
    </edge>
    <edge id=":1178_0" function="internal">
        <lane id=":1178_0_0" index="0" speed="13.89" length="0.15" shape="-1.59,0.01 -1.59,0.16"/>
    </edge>
    <edge id=":1179_0" function="internal">
        <lane id=":1179_0_0" index="0" speed="13.89" length="0.10" shape="1.31,-0.93 1.31,-0.93"/>
    </edge>
    <edge id=":1180_0" function="internal">
        <lane id=":1180_0_0" index="0" speed="13.89" length="0.10" shape="-0.32,1.57 -0.34,1.56"/>
    </edge>
    <edge id=":1181_0" function="internal">
        <lane id=":1181_0_0" index="0" speed="13.89" length="0.10" shape="-0.92,1.30 -0.89,1.32"/>
    </edge>
    <edge id=":1182_0" function="internal">
        <lane id=":1182_0_0" index="0" speed="13.89" length="0.10" shape="0.31,-1.57 0.31,-1.57"/>
    </edge>
    <edge id=":1183_0" function="internal">
        <lane id=":1183_0_0" index="0" speed="13.89" length="0.10" shape="1.57,0.38 1.56,0.41"/>
    </edge>
    <edge id=":1184_0" function="internal">
        <lane id=":1184_0_0" index="0" speed="13.89" length="0.10" shape="-0.33,1.57 -0.32,1.57"/>
    </edge>
    <edge id=":1185_0" function="internal">
        <lane id=":1185_0_0" index="0" speed="13.89" length="0.10" shape="-0.47,-1.52 -0.50,-1.51"/>
    </edge>
    <edge id=":1186_0" function="internal">
        <lane id=":1186_0_0" index="0" speed="13.89" length="0.10" shape="-0.50,-1.51 -0.43,-1.53"/>
    </edge>
    <edge id=":1187_0" function="internal">
        <lane id=":1187_0_0" index="0" speed="13.89" length="0.10" shape="0.82,1.39 0.87,1.36"/>
    </edge>
    <edge id=":1188_0" function="internal">
        <lane id=":1188_0_0" index="0" speed="13.89" length="0.10" shape="1.33,-0.90 1.33,-0.91"/>
    </edge>
    <edge id=":1188_1" function="internal">
        <lane id=":1188_1_0" index="0" speed="3.79" length="2.04" shape="-0.64,-1.45 1.33,-0.91"/>
    </edge>
    <edge id=":1189_0" function="internal">
        <lane id=":1189_0_0" index="0" speed="13.89" length="0.81" shape="-1.77,0.26 -1.30,0.92"/>
    </edge>
    <edge id=":1189_1" function="internal">
        <lane id=":1189_1_0" index="0" speed="3.45" length="2.04" shape="-1.77,0.26 -0.64,-1.45"/>
    </edge>
    <edge id=":1193_0" function="internal">
        <lane id=":1193_0_0" index="0" speed="13.89" length="0.29" shape="1.36,0.89 1.48,0.62"/>
    </edge>
    <edge id=":1194_0" function="internal">
        <lane id=":1194_0_0" index="0" speed="13.89" length="0.29" shape="1.05,1.23 1.25,1.01"/>
    </edge>
    <edge id=":1195_0" function="internal">
        <lane id=":1195_0_0" index="0" speed="13.89" length="0.10" shape="1.51,0.54 1.50,0.57"/>
    </edge>
    <edge id=":1196_0" function="internal">
        <lane id=":1196_0_0" index="0" speed="13.89" length="0.10" shape="1.48,0.62 1.51,0.54"/>
    </edge>
    <edge id=":1197_0" function="internal">
        <lane id=":1197_0_0" index="0" speed="13.89" length="0.26" shape="1.18,1.09 1.34,0.88"/>
    </edge>
    <edge id=":1198_0" function="internal">
        <lane id=":1198_0_0" index="0" speed="13.89" length="0.23" shape="1.34,0.88 1.46,0.68"/>
    </edge>
    <edge id=":1199_0" function="internal">
        <lane id=":1199_0_0" index="0" speed="13.89" length="0.10" shape="1.50,0.57 1.50,0.57"/>
    </edge>
    <edge id=":1200_0" function="internal">
        <lane id=":1200_0_0" index="0" speed="13.89" length="0.10" shape="1.57,0.35 1.57,0.38"/>
    </edge>
    <edge id=":1200_1" function="internal">
        <lane id=":1200_1_0" index="0" speed="3.72" length="2.31" shape="0.33,-1.56 1.57,0.38"/>
    </edge>
    <edge id=":1201_0" function="internal">
        <lane id=":1201_0_0" index="0" speed="13.89" length="1.34" shape="-1.52,0.49 -1.05,1.74"/>
    </edge>
    <edge id=":1201_1" function="internal">
        <lane id=":1201_1_0" index="0" speed="3.75" length="2.21" shape="-1.52,0.49 -0.55,-1.50"/>
    </edge>
    <edge id=":1202_0" function="internal">
        <lane id=":1202_0_0" index="0" speed="3.75" length="2.19" shape="-1.48,0.59 0.49,1.53"/>
    </edge>
    <edge id=":1202_1" function="internal">
        <lane id=":1202_1_0" index="0" speed="13.89" length="0.10" shape="-1.48,0.59 -1.49,0.56"/>
    </edge>
    <edge id=":1202_2" function="internal">
        <lane id=":1202_2_0" index="0" speed="13.89" length="0.10" shape="0.50,1.53 0.49,1.53"/>
    </edge>
    <edge id=":1202_3" function="internal">
        <lane id=":1202_3_0" index="0" speed="3.74" length="2.22" shape="0.50,1.53 -1.49,0.56"/>
    </edge>
    <edge id=":1203_0" function="internal">
        <lane id=":1203_0_0" index="0" speed="13.89" length="0.10" shape="-0.52,-1.50 -0.50,-1.51"/>
    </edge>
    <edge id=":1204_0" function="internal">
        <lane id=":1204_0_0" index="0" speed="13.89" length="0.19" shape="-0.50,-1.51 -0.32,-1.56"/>
    </edge>
    <edge id=":1205_0" function="internal">
        <lane id=":1205_0_0" index="0" speed="3.75" length="2.19" shape="-1.48,0.60 0.50,1.53"/>
    </edge>
    <edge id=":1205_1" function="internal">
        <lane id=":1205_1_0" index="0" speed="13.89" length="0.10" shape="-1.48,0.60 -1.49,0.57"/>
    </edge>
    <edge id=":1205_2" function="internal">
        <lane id=":1205_2_0" index="0" speed="3.73" length="2.26" shape="0.56,1.51 -1.49,0.57"/>
    </edge>
    <edge id=":1205_3" function="internal">
        <lane id=":1205_3_0" index="0" speed="13.89" length="0.10" shape="0.56,1.51 0.50,1.53"/>
    </edge>
    <edge id=":1206_0" function="internal">
        <lane id=":1206_0_0" index="0" speed="13.89" length="0.10" shape="0.50,1.53 0.47,1.54"/>
    </edge>
    <edge id=":1206_1" function="internal">
        <lane id=":1206_1_0" index="0" speed="3.74" length="2.22" shape="0.50,1.53 -1.49,0.56"/>
    </edge>
    <edge id=":1207_0" function="internal">
        <lane id=":1207_0_0" index="0" speed="13.89" length="0.16" shape="-1.57,0.27 -1.59,0.11"/>
    </edge>
    <edge id=":1207_1" function="internal">
        <lane id=":1207_1_0" index="0" speed="3.42" length="1.55" shape="-1.57,0.27 -1.32,-1.25"/>
    </edge>
    <edge id=":1208_0" function="internal">
        <lane id=":1208_0_0" index="0" speed="13.89" length="0.10" shape="0.56,1.50 0.50,1.53"/>
    </edge>
    <edge id=":1209_0" function="internal">
        <lane id=":1209_0_0" index="0" speed="13.89" length="0.10" shape="1.57,0.36 1.56,0.41"/>
    </edge>
    <edge id=":1209_1" function="internal">
        <lane id=":1209_1_0" index="0" speed="3.74" length="2.23" shape="1.57,0.36 -0.31,1.57"/>
    </edge>
    <edge id=":1210_0" function="internal">
        <lane id=":1210_0_0" index="0" speed="3.39" length="1.68" shape="-1.12,1.55 0.56,1.50"/>
    </edge>
    <edge id=":1210_1" function="internal">
        <lane id=":1210_1_0" index="0" speed="3.71" length="0.97" shape="1.48,-0.62 1.10,0.27"/>
    </edge>
    <edge id=":1210_3" function="internal">
        <lane id=":1210_3_0" index="0" speed="3.71" length="1.35" shape="1.10,0.27 0.56,1.50"/>
    </edge>
    <edge id=":1210_2" function="internal">
        <lane id=":1210_2_0" index="0" speed="13.89" length="0.10" shape="0.50,1.53 0.56,1.50"/>
    </edge>
    <edge id=":1211_0" function="internal">
        <lane id=":1211_0_0" index="0" speed="13.89" length="0.55" shape="-1.49,0.56 -1.32,1.08"/>
    </edge>
    <edge id=":1211_1" function="internal">
        <lane id=":1211_1_0" index="0" speed="3.71" length="2.32" shape="-1.49,0.56 -0.48,-1.52"/>
    </edge>
    <edge id=":1211_2" function="internal">
        <lane id=":1211_2_0" index="0" speed="3.78" length="2.40" shape="-1.13,-1.31 -1.32,1.08"/>
    </edge>
    <edge id=":1211_3" function="internal">
        <lane id=":1211_3_0" index="0" speed="13.89" length="0.69" shape="-1.13,-1.31 -0.48,-1.52"/>
    </edge>
    <edge id=":1212_0" function="internal">
        <lane id=":1212_0_0" index="0" speed="13.89" length="0.39" shape="-1.59,0.11 -1.57,-0.27"/>
    </edge>
    <edge id=":1213_0" function="internal">
        <lane id=":1213_0_0" index="0" speed="3.73" length="2.26" shape="-1.50,0.54 -0.53,-1.50"/>
    </edge>
    <edge id=":1213_1" function="internal">
        <lane id=":1213_1_0" index="0" speed="13.89" length="0.10" shape="-1.50,0.54 -1.48,0.60"/>
    </edge>
    <edge id=":1213_2" function="internal">
        <lane id=":1213_2_0" index="0" speed="13.89" length="0.10" shape="-0.47,-1.52 -0.53,-1.50"/>
    </edge>
    <edge id=":1213_3" function="internal">
        <lane id=":1213_3_0" index="0" speed="3.70" length="2.35" shape="-0.47,-1.52 -1.48,0.60"/>
    </edge>
    <edge id=":1214_0" function="internal">
        <lane id=":1214_0_0" index="0" speed="13.89" length="0.11" shape="0.42,1.55 0.52,1.52"/>
    </edge>
    <edge id=":1215_0" function="internal">
        <lane id=":1215_0_0" index="0" speed="13.89" length="0.10" shape="0.52,1.52 0.51,1.53"/>
    </edge>
    <edge id=":1216_0" function="internal">
        <lane id=":1216_0_0" index="0" speed="13.89" length="0.29" shape="-1.52,-0.49 -1.40,-0.76"/>
    </edge>
    <edge id=":1217_0" function="internal">
        <lane id=":1217_0_0" index="0" speed="3.72" length="2.31" shape="-1.49,0.56 -0.49,-1.52"/>
    </edge>
    <edge id=":1217_1" function="internal">
        <lane id=":1217_1_0" index="0" speed="13.89" length="0.10" shape="-1.49,0.56 -1.48,0.59"/>
    </edge>
    <edge id=":1217_2" function="internal">
        <lane id=":1217_2_0" index="0" speed="13.89" length="0.10" shape="-0.53,-1.50 -0.49,-1.52"/>
    </edge>
    <edge id=":1217_3" function="internal">
        <lane id=":1217_3_0" index="0" speed="3.72" length="2.30" shape="-0.53,-1.50 -1.48,0.59"/>
    </edge>
    <edge id=":1218_0" function="internal">
        <lane id=":1218_0_0" index="0" speed="13.89" length="0.27" shape="-1.30,-0.92 -1.12,-1.13"/>
    </edge>
    <edge id=":1219_0" function="internal">
        <lane id=":1219_0_0" index="0" speed="13.89" length="0.10" shape="1.50,-0.58 1.48,-0.62"/>
    </edge>
    <edge id=":1219_1" function="internal">
        <lane id=":1219_1_0" index="0" speed="3.74" length="2.21" shape="1.50,-0.58 -0.51,-1.51"/>
    </edge>
    <edge id=":1219_2" function="internal">
        <lane id=":1219_2_0" index="0" speed="3.76" length="2.15" shape="-0.47,-1.52 1.48,-0.62"/>
    </edge>
    <edge id=":1219_3" function="internal">
        <lane id=":1219_3_0" index="0" speed="13.89" length="0.10" shape="-0.47,-1.52 -0.51,-1.51"/>
    </edge>
    <edge id=":1220_0" function="internal">
        <lane id=":1220_0_0" index="0" speed="4.08" length="2.21" shape="-1.38,0.89 -0.96,-1.27"/>
    </edge>
    <edge id=":1220_1" function="internal">
        <lane id=":1220_1_0" index="0" speed="13.89" length="0.22" shape="-1.12,-1.13 -0.96,-1.27"/>
    </edge>
    <edge id=":1221_0" function="internal">
        <lane id=":1221_0_0" index="0" speed="13.89" length="0.10" shape="1.57,0.34 1.57,0.36"/>
    </edge>
    <edge id=":1221_1" function="internal">
        <lane id=":1221_1_0" index="0" speed="3.73" length="2.27" shape="0.36,-1.56 1.57,0.36"/>
    </edge>
    <edge id=":1222_0" function="internal">
        <lane id=":1222_0_0" index="0" speed="13.89" length="0.11" shape="-0.96,-1.27 -0.87,-1.34"/>
    </edge>
    <edge id=":1223_0" function="internal">
        <lane id=":1223_0_0" index="0" speed="3.76" length="2.17" shape="-1.48,0.59 -0.70,-1.43"/>
    </edge>
    <edge id=":1223_1" function="internal">
        <lane id=":1223_1_0" index="0" speed="13.89" length="0.85" shape="-1.45,-1.02 -0.70,-1.43"/>
    </edge>
    <edge id=":1224_0" function="internal">
        <lane id=":1224_0_0" index="0" speed="13.89" length="0.10" shape="-0.48,-1.52 -0.47,-1.52"/>
    </edge>
    <edge id=":1225_0" function="internal">
        <lane id=":1225_0_0" index="0" speed="13.89" length="0.10" shape="-0.70,-1.43 -0.65,-1.46"/>
    </edge>
    <edge id=":1226_0" function="internal">
        <lane id=":1226_0_0" index="0" speed="13.89" length="1.07" shape="1.56,0.41 1.79,-0.64"/>
    </edge>
    <edge id=":1227_0" function="internal">
        <lane id=":1227_0_0" index="0" speed="3.71" length="2.33" shape="-1.48,0.60 -0.50,-1.52"/>
    </edge>
    <edge id=":1227_1" function="internal">
        <lane id=":1227_1_0" index="0" speed="13.89" length="0.16" shape="-0.64,-1.46 -0.50,-1.52"/>
    </edge>
    <edge id=":1228_0" function="internal">
        <lane id=":1228_0_0" index="0" speed="13.89" length="0.10" shape="-0.50,-1.52 -0.45,-1.53"/>
    </edge>
    <edge id=":1229_0" function="internal">
        <lane id=":1229_0_0" index="0" speed="3.76" length="2.16" shape="-0.45,-1.53 1.50,-0.58"/>
    </edge>
    <edge id=":1229_1" function="internal">
        <lane id=":1229_1_0" index="0" speed="13.89" length="0.11" shape="-0.45,-1.53 -0.34,-1.56"/>
    </edge>
    <edge id=":1230_0" function="internal">
        <lane id=":1230_0_0" index="0" speed="13.89" length="0.10" shape="-0.34,-1.56 -0.27,-1.57"/>
    </edge>
    <edge id=":1231_0" function="internal">
        <lane id=":1231_0_0" index="0" speed="13.89" length="0.12" shape="-0.27,-1.57 -0.16,-1.59"/>
    </edge>
    <edge id=":1232_0" function="internal">
        <lane id=":1232_0_0" index="0" speed="13.89" length="0.31" shape="1.46,0.67 1.57,0.38"/>
    </edge>
    <edge id=":1232_1" function="internal">
        <lane id=":1232_1_0" index="0" speed="3.71" length="2.32" shape="0.31,-1.57 1.57,0.38"/>
    </edge>
    <edge id=":1235_0" function="internal">
        <lane id=":1235_0_0" index="0" speed="3.76" length="2.15" shape="1.57,0.35 0.50,-1.52"/>
    </edge>
    <edge id=":1235_1" function="internal">
        <lane id=":1235_1_0" index="0" speed="13.89" length="0.10" shape="1.57,0.35 1.57,0.34"/>
    </edge>
    <edge id=":1236_0" function="internal">
        <lane id=":1236_0_0" index="0" speed="13.89" length="0.91" shape="1.75,-0.44 1.31,-1.23"/>
    </edge>
    <edge id=":1236_1" function="internal">
        <lane id=":1236_1_0" index="0" speed="13.89" length="0.80" shape="1.75,-0.44 1.57,0.35"/>
    </edge>
    <edge id=":1237_0" function="internal">
        <lane id=":1237_0_0" index="0" speed="13.89" length="0.12" shape="-0.11,-1.59 0.01,-1.60"/>
    </edge>
    <edge id=":1238_0" function="internal">
        <lane id=":1238_0_0" index="0" speed="13.89" length="0.29" shape="-1.44,0.69 -1.54,0.42"/>
    </edge>
    <edge id=":1239_0" function="internal">
        <lane id=":1239_0_0" index="0" speed="13.89" length="0.15" shape="-1.54,0.42 -1.57,0.27"/>
    </edge>
    <edge id=":1240_0" function="internal">
        <lane id=":1240_0_0" index="0" speed="13.89" length="0.10" shape="-1.48,0.59 -1.48,0.60"/>
    </edge>
    <edge id=":1241_0" function="internal">
        <lane id=":1241_0_0" index="0" speed="13.89" length="0.10" shape="0.47,1.54 0.56,1.50"/>
    </edge>
    <edge id=":1242_0" function="internal">
        <lane id=":1242_0_0" index="0" speed="13.89" length="0.29" shape="0.80,1.39 1.05,1.23"/>
    </edge>
    <edge id=":1243_0" function="internal">
        <lane id=":1243_0_0" index="0" speed="13.89" length="0.22" shape="-1.19,1.07 -1.33,0.89"/>
    </edge>
    <edge id=":1244_0" function="internal">
        <lane id=":1244_0_0" index="0" speed="13.89" length="0.10" shape="-0.51,-1.51 -0.51,-1.51"/>
    </edge>
    <edge id=":1245_0" function="internal">
        <lane id=":1245_0_0" index="0" speed="13.89" length="0.10" shape="-0.49,-1.52 -0.47,-1.52"/>
    </edge>
    <edge id=":1246_0" function="internal">
        <lane id=":1246_0_0" index="0" speed="13.89" length="0.10" shape="-0.47,-1.52 -0.47,-1.52"/>
    </edge>
    <edge id=":1247_0" function="internal">
        <lane id=":1247_0_0" index="0" speed="13.89" length="0.10" shape="0.32,-1.57 0.33,-1.56"/>
    </edge>
    <edge id=":1248_0" function="internal">
        <lane id=":1248_0_0" index="0" speed="13.89" length="0.10" shape="0.75,1.42 0.81,1.39"/>
    </edge>
    <edge id=":1249_0" function="internal">
        <lane id=":1249_0_0" index="0" speed="13.89" length="0.10" shape="0.73,1.43 0.75,1.42"/>
    </edge>
    <edge id=":1250_0" function="internal">
        <lane id=":1250_0_0" index="0" speed="13.89" length="0.10" shape="0.81,1.39 0.87,1.35"/>
    </edge>
    <edge id=":1251_0" function="internal">
        <lane id=":1251_0_0" index="0" speed="3.73" length="2.25" shape="-0.32,1.57 1.57,0.34"/>
    </edge>
    <edge id=":1251_1" function="internal">
        <lane id=":1251_1_0" index="0" speed="13.89" length="0.10" shape="1.56,0.41 1.57,0.34"/>
    </edge>
    <edge id=":1252_0" function="internal">
        <lane id=":1252_0_0" index="0" speed="13.89" length="0.10" shape="0.51,1.53 0.50,1.53"/>
    </edge>
    <edge id=":1253_0" function="internal">
        <lane id=":1253_0_0" index="0" speed="13.89" length="0.10" shape="-0.29,1.58 -0.28,1.58"/>
    </edge>
    <edge id=":1254_0" function="internal">
        <lane id=":1254_0_0" index="0" speed="13.89" length="0.10" shape="-0.27,1.58 -0.17,1.59"/>
    </edge>
    <edge id=":1255_0" function="internal">
        <lane id=":1255_0_0" index="0" speed="13.89" length="0.38" shape="-0.20,1.59 0.18,1.60"/>
    </edge>
    <edge id=":1256_0" function="internal">
        <lane id=":1256_0_0" index="0" speed="13.89" length="0.15" shape="0.38,1.56 0.53,1.52"/>
    </edge>
    <edge id=":1257_0" function="internal">
        <lane id=":1257_0_0" index="0" speed="13.89" length="0.10" shape="0.25,-1.58 0.27,-1.57"/>
    </edge>
    <edge id=":1258_0" function="internal">
        <lane id=":1258_0_0" index="0" speed="13.89" length="0.33" shape="-0.07,-1.59 0.25,-1.58"/>
    </edge>
    <edge id=":1259_0" function="internal">
        <lane id=":1259_0_0" index="0" speed="13.89" length="0.20" shape="-0.27,-1.57 -0.07,-1.59"/>
    </edge>
    <edge id=":1260_0" function="internal">
        <lane id=":1260_0_0" index="0" speed="13.89" length="0.21" shape="-0.47,-1.52 -0.27,-1.57"/>
    </edge>
    <edge id=":1261_0" function="internal">
        <lane id=":1261_0_0" index="0" speed="13.89" length="0.10" shape="1.56,0.41 1.56,0.41"/>
    </edge>
    <edge id=":1262_0" function="internal">
        <lane id=":1262_0_0" index="0" speed="13.89" length="0.10" shape="0.31,-1.57 0.33,-1.56"/>
    </edge>
    <edge id=":1263_0" function="internal">
        <lane id=":1263_0_0" index="0" speed="13.89" length="0.10" shape="0.20,-1.59 0.28,-1.57"/>
    </edge>
    <edge id=":1264_0" function="internal">
        <lane id=":1264_0_0" index="0" speed="13.89" length="0.19" shape="0.01,-1.60 0.19,-1.59"/>
    </edge>
    <edge id=":1265_0" function="internal">
        <lane id=":1265_0_0" index="0" speed="13.89" length="0.10" shape="-0.16,-1.59 -0.11,-1.59"/>
    </edge>
    <edge id=":1266_0" function="internal">
        <lane id=":1266_0_0" index="0" speed="13.89" length="0.10" shape="-0.34,-1.56 -0.34,-1.56"/>
    </edge>
    <edge id=":1267_0" function="internal">
        <lane id=":1267_0_0" index="0" speed="13.89" length="0.10" shape="0.31,-1.57 0.35,-1.56"/>
    </edge>
    <edge id=":1268_0" function="internal">
        <lane id=":1268_0_0" index="0" speed="13.89" length="0.10" shape="0.21,-1.58 0.30,-1.57"/>
    </edge>
    <edge id=":1269_0" function="internal">
        <lane id=":1269_0_0" index="0" speed="13.89" length="0.10" shape="0.30,-1.57 0.32,-1.57"/>
    </edge>
    <edge id=":1270_0" function="internal">
        <lane id=":1270_0_0" index="0" speed="13.89" length="0.34" shape="-0.13,-1.59 0.21,-1.58"/>
    </edge>
    <edge id=":1271_0" function="internal">
        <lane id=":1271_0_0" index="0" speed="13.89" length="0.19" shape="-0.32,-1.56 -0.13,-1.59"/>
    </edge>
    <edge id=":1272_0" function="internal">
        <lane id=":1272_0_0" index="0" speed="13.89" length="0.59" shape="-0.21,1.64 0.38,1.56"/>
    </edge>
    <edge id=":1273_0" function="internal">
        <lane id=":1273_0_0" index="0" speed="13.89" length="0.10" shape="0.33,-1.56 0.34,-1.56"/>
    </edge>
    <edge id=":1274_0" function="internal">
        <lane id=":1274_0_0" index="0" speed="13.89" length="0.10" shape="0.34,-1.56 0.31,-1.57"/>
    </edge>
    <edge id=":1275_0" function="internal">
        <lane id=":1275_0_0" index="0" speed="13.89" length="0.10" shape="0.31,-1.57 0.34,-1.56"/>
    </edge>
    <edge id=":1276_0" function="internal">
        <lane id=":1276_0_0" index="0" speed="13.89" length="0.10" shape="0.74,1.43 0.74,1.42"/>
    </edge>
    <edge id=":1277_0" function="internal">
        <lane id=":1277_0_0" index="0" speed="13.89" length="0.10" shape="0.74,1.42 0.73,1.43"/>
    </edge>
    <edge id=":1278_0" function="internal">
        <lane id=":1278_0_0" index="0" speed="13.89" length="0.10" shape="-1.49,0.57 -1.50,0.54"/>
    </edge>
    <edge id=":1279_0" function="internal">
        <lane id=":1279_0_0" index="0" speed="13.89" length="0.10" shape="1.50,-0.58 1.50,-0.58"/>
    </edge>
    <edge id=":1280_0" function="internal">
        <lane id=":1280_0_0" index="0" speed="13.89" length="0.10" shape="0.63,1.47 0.72,1.44"/>
    </edge>
    <edge id=":1281_0" function="internal">
        <lane id=":1281_0_0" index="0" speed="13.89" length="0.10" shape="0.32,-1.57 0.33,-1.56"/>
    </edge>
    <edge id=":1282_0" function="internal">
        <lane id=":1282_0_0" index="0" speed="13.89" length="0.10" shape="0.35,-1.56 0.30,-1.57"/>
    </edge>
    <edge id=":1283_0" function="internal">
        <lane id=":1283_0_0" index="0" speed="13.89" length="0.10" shape="0.21,-1.58 0.21,-1.58"/>
    </edge>
    <edge id=":1284_0" function="internal">
        <lane id=":1284_0_0" index="0" speed="13.89" length="0.10" shape="-0.54,-1.50 -0.52,-1.50"/>
    </edge>
    <edge id=":1285_0" function="internal">
        <lane id=":1285_0_0" index="0" speed="13.89" length="0.10" shape="-0.31,1.57 -0.29,1.58"/>
    </edge>
    <edge id=":1286_0" function="internal">
        <lane id=":1286_0_0" index="0" speed="13.89" length="0.10" shape="-0.27,1.58 -0.27,1.58"/>
    </edge>
    <edge id=":1287_0" function="internal">
        <lane id=":1287_0_0" index="0" speed="13.89" length="0.10" shape="0.34,-1.56 0.31,-1.57"/>
    </edge>
    <edge id=":1288_0" function="internal">
        <lane id=":1288_0_0" index="0" speed="13.89" length="0.10" shape="0.28,-1.57 0.31,-1.57"/>
    </edge>
    <edge id=":1289_0" function="internal">
        <lane id=":1289_0_0" index="0" speed="13.89" length="0.10" shape="0.32,-1.57 0.32,-1.57"/>
    </edge>
    <edge id=":1290_0" function="internal">
        <lane id=":1290_0_0" index="0" speed="13.89" length="0.10" shape="0.27,-1.57 0.32,-1.57"/>
    </edge>
    <edge id=":1291_0" function="internal">
        <lane id=":1291_0_0" index="0" speed="13.89" length="0.10" shape="0.32,-1.57 0.36,-1.56"/>
    </edge>
    <edge id=":1292_0" function="internal">
        <lane id=":1292_0_0" index="0" speed="13.89" length="0.10" shape="0.33,-1.56 0.32,-1.57"/>
    </edge>
    <edge id=":1293_0" function="internal">
        <lane id=":1293_0_0" index="0" speed="13.89" length="0.21" shape="0.61,1.49 0.80,1.39"/>
    </edge>
    <edge id=":1294_0" function="internal">
        <lane id=":1294_0_0" index="0" speed="13.89" length="0.17" shape="0.91,1.32 1.04,1.22"/>
    </edge>
    <edge id=":1295_0" function="internal">
        <lane id=":1295_0_0" index="0" speed="13.89" length="0.19" shape="1.04,1.22 1.18,1.09"/>
    </edge>
    <edge id=":1296_0" function="internal">
        <lane id=":1296_0_0" index="0" speed="13.89" length="0.86" shape="-0.87,-1.34 -1.62,-0.93"/>
    </edge>
    <edge id=":1297_0" function="internal">
        <lane id=":1297_0_0" index="0" speed="13.89" length="0.19" shape="-1.40,-0.76 -1.30,-0.92"/>
    </edge>
    <edge id=":1298_0" function="internal">
        <lane id=":1298_0_0" index="0" speed="13.89" length="0.22" shape="-1.57,-0.27 -1.52,-0.49"/>
    </edge>
    <edge id=":1299_0" function="internal">
        <lane id=":1299_0_0" index="0" speed="13.89" length="0.23" shape="-1.33,0.89 -1.44,0.69"/>
    </edge>
    <edge id=":1300_0" function="internal">
        <lane id=":1300_0_0" index="0" speed="13.89" length="0.10" shape="-0.28,1.58 -0.26,1.58"/>
    </edge>
    <edge id=":1301_0" function="internal">
        <lane id=":1301_0_0" index="0" speed="13.89" length="0.10" shape="0.76,1.42 0.73,1.43"/>
    </edge>
    <edge id=":1303_0" function="internal">
        <lane id=":1303_0_0" index="0" speed="13.89" length="0.33" shape="-1.33,0.88 -1.12,1.15"/>
    </edge>
    <edge id=":1304_0" function="internal">
        <lane id=":1304_0_0" index="0" speed="13.89" length="0.99" shape="-1.59,-0.07 -1.33,0.89"/>
    </edge>
    <edge id=":1305_0" function="internal">
        <lane id=":1305_0_0" index="0" speed="13.89" length="0.10" shape="-1.59,-0.12 -1.59,-0.07"/>
    </edge>
    <edge id=":1306_0" function="internal">
        <lane id=":1306_0_0" index="0" speed="13.89" length="0.10" shape="-0.17,1.59 -0.20,1.59"/>
    </edge>
    <edge id=":1306_1" function="internal">
        <lane id=":1306_1_0" index="0" speed="3.74" length="2.22" shape="-0.17,1.59 -1.59,-0.12"/>
    </edge>
    <edge id=":1307_0" function="internal">
        <lane id=":1307_0_0" index="0" speed="13.89" length="0.10" shape="-1.39,0.77 -1.38,0.80"/>
    </edge>
    <edge id=":1309_0" function="internal">
        <lane id=":1309_0_0" index="0" speed="13.89" length="0.59" shape="1.05,1.22 0.53,1.52"/>
    </edge>
    <edge id=":1310_0" function="internal">
        <lane id=":1310_0_0" index="0" speed="13.89" length="0.64" shape="1.44,0.72 1.05,1.22"/>
    </edge>
    <edge id=":1311_0" function="internal">
        <lane id=":1311_0_0" index="0" speed="13.89" length="0.78" shape="1.61,-0.04 1.44,0.72"/>
    </edge>
    <edge id=":1312_0" function="internal">
        <lane id=":1312_0_0" index="0" speed="13.89" length="0.45" shape="1.53,-0.49 1.61,-0.04"/>
    </edge>