<?xml version="1.0" encoding="UTF-8"?>

<!-- generated on 2025-10-05 22:58:23.008789 by randomTrips.py UNKNOWN
<configuration>
    <net-file value="scenarios/from_api/api.net.xml"/>
    <output-trip-file value="scenarios/from_api/emergency.trips.xml"/>
    <route-file value="scenarios/from_api/emergency.rou.xml"/>
    <vtype-output value="emergency"/>
    <prefix value="em"/>
    <end value="8.0"/>
    <period value="800.0"/>
</configuration>
-->

<!-- generated on 2025-10-05 22:58:22 by Eclipse SUMO duarouter Version 1.24.0
<duarouterConfiguration xmlns:xsi="http://www.w3.org/2001/XMLSchema-instance" xsi:noNamespaceSchemaLocation="http://sumo.dlr.de/xsd/duarouterConfiguration.xsd">

    <input>
        <net-file value="scenarios/from_api/api.net.xml"/>
        <route-files value="scenarios/from_api/emergency.trips.xml"/>
    </input>

    <output>
        <output-file value="scenarios/from_api/emergency.rou.xml"/>
        <vtype-output value="emergency"/>
        <alternatives-output value="NUL"/>
    </output>

    <time>
        <begin value="0"/>
        <end value="8.0"/>
    </time>

    <report>
        <no-warnings value="true"/>
        <ignore-errors value="true"/>
        <no-step-log value="true"/>
    </report>

</duarouterConfiguration>
-->

<routes xmlns:xsi="http://www.w3.org/2001/XMLSchema-instance" xsi:noNamespaceSchemaLocation="http://sumo.dlr.de/xsd/routes_file.xsd">
</routes>
